$
$ANSA_VERSION;20.1.0;
$
$
$ file created by  A N S A  Mon Jan 18 22:36:14 2021
$
$ output from :
$
$ //129.27.213.85/vsi-p/100_Lecture/010_TUG/W 000.000 VU Hochdynamische FE-Simul
$ ation in der Fahrzeugsicherheit/020_Lecture/2020/03_Element_Types/Example_Elem
$ ent_Types/02_Solid/02_Solid.dyn
$
$
$
$
*KEYWORD
*CONTROL_TERMINATION
$   ENDTIM|   ENDCYC|    DTMIN|   ENDENG|   ENDMAS|    NOSOL|
       10. 
*CONTROL_ENERGY
$#    hgen      rwen    slnten     rylen
       2
$                                                 
*DATABASE_BINARY_D3PLOT
$       DT|     LCDT|     BEAM|    NPLTC|   PSETID|
        1.                                        
$    IOOPT|     RATE|   CUTOFF|   WINDOW|     TYPE|     PSET|
         0 
*DATABASE_NODOUT
$       DT|   BINARY|     LCUR|    IOOPT|     DTHF|    BINHF|
       0.1         3                                        
*DATABASE_HISTORY_NODE_SET
$#     id1       id2       id3       id4       id5       id6       id7       id8
         3
$
*DATABASE_GLSTAT
$       DT|   BINARY|     LCUR|    IOOPT|
       0.1         3                                                  
*NODE_TRANSFORM
         1         4
*DEFINE_TRANSFORMATION_TITLE
Scale Thickness
$   TRANID|
         1
$   OPTION|       A1|       A2|       A3|
SCALE             1.        1.        1.
*PART
Solid
$      PID|    SECID|      MID|    EOSID|     HGID|     GRAV|   ADPOPT|     TMID|
         2         2         1                             0         0          
*SECTION_SOLID_TITLE
Solid
$    SECID|   ELFORM|
         2         1
$ANSA_ID;1;
*LOAD_BODY_Z
         2   0.00981         0                                       0
*BOUNDARY_SPC_SET_ID
         1                                                                      
         1                   1         1         1         1         1         1
*LOAD_NODE_SET
$ANSA_ID;1;
         3         3         3        1.          
*MAT_PIECEWISE_LINEAR_PLASTICITY_TITLE

$      MID|       RO|        E|       PR|     SIGY|     ETAN|     FAIL|     TDEL|
         1    7.8E-6      210.       0.3       0.5       20.        0.        0.
$        C|        P|     LCSS|     LCSR|       VP|
        0.        0.         0         0        0.
$     EPS1|     EPS2|     EPS3|     EPS4|     EPS5|     EPS6|     EPS7|     EPS8|
        0.        0.        0.        0.        0.        0.        0.        0.
$      ES1|      ES2|      ES3|      ES4|      ES5|      ES6|      ES7|      ES8|
        0.        0.        0.        0.        0.        0.        0.        0.
*DEFINE_CURVE_TITLE
Gravity
         2         0        1.        1.        0.        0.         0          
                  0.                  1.
                100.                  1.
*DEFINE_CURVE_TITLE
Load
         3         0        1.        1.        0.        0.         0          
                  0.                  0.
                  5.              -0.005
                 10.                  0.
*SET_NODE_LIST
         1        0.        0.        0.        0.
       125       126       127       128       249       250       251       252
*SET_NODE_LIST
         3        0.        0.        0.        0.
         5         6         9        11       129       130       133       135
*SET_NODE_LIST
         4        0.        0.        0.        0.
         5         6         7         8         9        10        11        12
        13        14        15        16        17        18        19        20
        21        22        23        24        25        26        27        28
        29        30        31        32        33        34        35        36
        37        38        39        40        41        42        43        44
        45        46        47        48        49        50        51        52
        53        54        55        56        57        58        59        60
        61        62        63        64        65        66        67        68
        69        70        71        72        73        74        75        76
        77        78        79        80        81        82        83        84
        85        86        87        88        89        90        91        92
        93        94        95        96        97        98        99       100
       101       102       103       104       105       106       107       108
       109       110       111       112       113       114       115       116
       117       118       119       120       121       122       123       124
       125       126       127       128       129       130       131       132
       133       134       135       136       137       138       139       140
       141       142       143       144       145       146       147       148
       149       150       151       152       153       154       155       156
$ ... 12 like lines cut
*NODE
       5            300.             30.              0.       0       0
       6            300.             20.              0.       0       0
       7            290.             20.              0.       0       0
       8            290.             30.              0.       0       0
       9            300.             10.              0.       0       0
      10            290.             10.              0.       0       0
      11            300.              0.              0.       0       0
      12            290.              0.              0.       0       0
      13            280.             20.              0.       0       0
      14            280.             30.              0.       0       0
      15            280.             10.              0.       0       0
      16            280.              0.              0.       0       0
      17            270.             20.              0.       0       0
      18            270.             30.              0.       0       0
      19            270.             10.              0.       0       0
      20            270.              0.              0.       0       0
      21            260.             20.              0.       0       0
      22            260.             30.              0.       0       0
      23            260.             10.              0.       0       0
      24            260.              0.              0.       0       0
$ ... 228 like lines cut
*ELEMENT_SOLID
      92       2
     129     130     131     132       5       6       7       8       0       0
      93       2
     130     133     134     131       6       9      10       7       0       0
      94       2
     133     135     136     134       9      11      12      10       0       0
      95       2
     132     131     137     138       8       7      13      14       0       0
      96       2
     131     134     139     137       7      10      15      13       0       0
      97       2
     134     136     140     139      10      12      16      15       0       0
      98       2
     138     137     141     142      14      13      17      18       0       0
      99       2
     137     139     143     141      13      15      19      17       0       0
     100       2
     139     140     144     143      15      16      20      19       0       0
     101       2
     142     141     145     146      18      17      21      22       0       0
$ ... 160 like lines cut
*END
