$
$ Comments:
$ This is an example for the lecture "Highly dynamic FE simulation in vehicle safety"
$ for the block "element formulations" 
$ (c) Vehicle Safety Institute, TU Graz 2021
$
*KEYWORD
*CONTROL_TERMINATION
$   ENDTIM|   ENDCYC|    DTMIN|   ENDENG|   ENDMAS|    NOSOL|
       10.                                                  
*DATABASE_NODOUT
$       DT|   BINARY|     LCUR|    IOOPT|     DTHF|    BINHF|
       0.1         3                                        
*DATABASE_HISTORY_NODE_SET
$#     id1       id2       id3       id4       id5       id6       id7       id8
         3
$
*DATABASE_GLSTAT
$       DT|   BINARY|     LCUR|    IOOPT|
       0.1         3                    
*DATABASE_BINARY_D3PLOT
$       DT|     LCDT|     BEAM|    NPLTC|   PSETID|
        1.                                        
$    IOOPT|     RATE|   CUTOFF|   WINDOW|     TYPE|     PSET|
         0                                                  
*PART
Sheet
$      PID|    SECID|      MID|         |     HGID|     GRAV|   ADPOPT|     TMID|
         1         1         1                             0         0          
*SECTION_SHELL_TITLE
Sheet
$    SECID|   ELFORM|     SHRF|      NIP|    PROPT|  QR/IRID|    ICOMP|
         1         2  0.833333        5.        0.         0         0
$       T1|       T2|       T3|       T4|     NLOC|    MAREA|     IDOF|   EDGSET|
        2.        2.        2.        2.        0.                  0.          
$ANSA_ID;1;
*LOAD_BODY_Z
         2   0.00981         0                                       0
*BOUNDARY_SPC_SET_ID
         1                                                                      
         1                   1         1         1         0         0         0
*LOAD_NODE_SET
$ANSA_ID;1;
         3         3         3        1.          
*MAT_PIECEWISE_LINEAR_PLASTICITY_TITLE
Steel
$      MID|       RO|        E|       PR|     SIGY|     ETAN|     FAIL|     TDEL|
         1    7.8E-6      210.       0.3       0.5       20.        0.        0.
$        C|        P|     LCSS|     LCSR|       VP|
        0.        0.         0         0        0.
$     EPS1|     EPS2|     EPS3|     EPS4|     EPS5|     EPS6|     EPS7|     EPS8|
        0.        0.        0.        0.        0.        0.        0.        0.
$      ES1|      ES2|      ES3|      ES4|      ES5|      ES6|      ES7|      ES8|
        0.        0.        0.        0.        0.        0.        0.        0.
*DEFINE_CURVE_TITLE
Gravity
         2         0        1.        1.        0.        0.         0          
                  0.                  1.
                100.                  1.
*DEFINE_CURVE_TITLE
Load
         3         0        1.        1.        0.        0.         0          
                  0.                  0.
                  5.              -0.005
                 10.                  0.
*SET_NODE_LIST
         1        0.        0.        0.        0.
       125       126       127       128
*SET_NODE_LIST
         3        0.        0.        0.        0.
         5         6         9        11
*NODE
$#   nid               x               y               z      tc      rc
       5            300.             30.              0.       0       0
       6            300.             20.              0.       0       0
       7            290.             20.              0.       0       0
       8            290.             30.              0.       0       0
       9            300.             10.              0.       0       0
      10            290.             10.              0.       0       0
      11            300.              0.              0.       0       0
      12            290.              0.              0.       0       0
      13            280.             20.              0.       0       0
      14            280.             30.              0.       0       0
      15            280.             10.              0.       0       0
      16            280.              0.              0.       0       0
      17            270.             20.              0.       0       0
      18            270.             30.              0.       0       0
      19            270.             10.              0.       0       0
      20            270.              0.              0.       0       0
      21            260.             20.              0.       0       0
      22            260.             30.              0.       0       0
      23            260.             10.              0.       0       0
      24            260.              0.              0.       0       0
$ ... 104 like lines cut
*ELEMENT_SHELL
$#   eid     pid      n1      n2      n3      n4      n5      n6      n7      n8
       2       1       5       6       7       8
       3       1       6       9      10       7
       4       1       9      11      12      10
       5       1       8       7      13      14
       6       1       7      10      15      13
       7       1      10      12      16      15
       8       1      14      13      17      18
       9       1      13      15      19      17
      10       1      15      16      20      19
      11       1      18      17      21      22
      12       1      17      19      23      21
      13       1      19      20      24      23
      14       1      22      21      25      26
      15       1      21      23      27      25
      16       1      23      24      28      27
      17       1      26      25      29      30
      18       1      25      27      31      29
      19       1      27      28      32      31
      20       1      30      29      33      34
      21       1      29      31      35      33
$ ... 70 like lines cut
*END
