$# LS-DYNA Keyword file created by LS-PrePost(R) V4.5.14 - 14Feb2018
$# Created on Oct-28-2019 (20:06:16)
*KEYWORD
*TITLE
$#                                                                         title
LS-DYNA keyword deck by LS-PrePost
*CONTROL_TERMINATION
$#  endtim    endcyc     dtmin    endeng    endmas     nosol     
      0.01         0       0.0       0.01.000000E8         0
*DATABASE_BINARY_D3PLOT
$#      dt      lcdt      beam     npltc    psetid      
     0.001         0         0         0         0
$#   ioopt     
         0
*BOUNDARY_SPC_SET_ID
$#      id                                                               heading
         0Cell_C4
$#    nsid       cid      dofx      dofy      dofz     dofrx     dofry     dofrz
         2         0         1         1         1         1         1         1
*SET_NODE_LIST_TITLE
All_Nodes_C4
$#     sid       da1       da2       da3       da4    solver      
         2       0.0       0.0       0.0       0.0MECH
$#    nid1      nid2      nid3      nid4      nid5      nid6      nid7      nid8
         1         2         3         4         5         6         7         8
         9        10        11        12        13        14        15        16
        17        18        19        20        21        22        23        24
        25        26        27        28        29        30        31        32
        33        34        35        36        37        38        39        40
        41        42        43        44        45        46        47        48
        49        50        51        52        53        54        55        56
        57        58        59        60        61        62        63        64
        65        66        67        68        69        70        71        72
        73        74        75        76        77        78        79        80
        81        82        83        84        85        86        87        88
        89        90        91        92        93        94        95        96
        97        98        99       100       101       102       103       104
       105       106       107       108       109       110       111       112
       113       114       115       116       117       118       119       120
       121       122       123       124       125       126       127       128
       129       130       131       132       133       134       135       136
       137       138       139       140       141       142       143       144
       145       146       147       148       149       150       151       152
       153       154       155       156       157       158       159       160
$ ... 52 like lines cut
*CONTACT_AUTOMATIC_SURFACE_TO_SURFACE_ID
$#     cid                                                                 title
         0Impactor - Cell C1
$#    ssid      msid     sstyp     mstyp    sboxid    mboxid       spr       mpr
         7         4         3         3         0         0         0         0
$#      fs        fd        dc        vc       vdc    penchk        bt        dt
       0.2       0.2       0.0       0.0      20.0         0       0.01.00000E20
$#     sfs       sfm       sst       mst      sfst      sfmt       fsf       vsf
       1.0       1.0       0.0       0.0       1.0       1.0       1.0       1.0
*CONTACT_AUTOMATIC_SINGLE_SURFACE_ID
$#     cid                                                                 title
         0Cell C1-C2-C3-C4
$#    ssid      msid     sstyp     mstyp    sboxid    mboxid       spr       mpr
         1         0         2         0         0         0         0         0
$#      fs        fd        dc        vc       vdc    penchk        bt        dt
       0.2       0.2       0.0       0.0      20.0         0       0.01.00000E20
$#     sfs       sfm       sst       mst      sfst      sfmt       fsf       vsf
       1.0       1.0       0.0       0.0       1.0       1.0       1.0       1.0
*SET_PART_LIST_TITLE
Cell Stack C1-C2-C3-C4
$#     sid       da1       da2       da3       da4    solver      
         1       0.0       0.0       0.0       0.0MECH
$#    pid1      pid2      pid3      pid4      pid5      pid6      pid7      pid8
         4         5         6         1         0         0         0         0
*PART
$#                                                                         title
Cell_C1
$#     pid     secid       mid     eosid      hgid      grav    adpopt      tmid
         1         2         1         0         0         0         0         0
*SECTION_SHELL
$#   secid    elform      shrf       nip     propt   qr/irid     icomp     setyp
         2         2       1.0         2       1.0         0         0         1
$#      t1        t2        t3        t4      nloc     marea      idof    edgset
       5.0       5.0       5.0       5.0       0.0       0.0       0.0         0
*MAT_PIECEWISE_LINEAR_PLASTICITY
$#     mid        ro         e        pr      sigy      etan      fail      tdel
         12.66000E-9    5000.0       0.3     140.0     150.01.00000E21       0.0
$#       c         p      lcss      lcsr        vp  
       0.0       0.0         0         0       0.0
$#    eps1      eps2      eps3      eps4      eps5      eps6      eps7      eps8
       0.0       0.0       0.0       0.0       0.0       0.0       0.0       0.0
$#     es1       es2       es3       es4       es5       es6       es7       es8
       0.0       0.0       0.0       0.0       0.0       0.0       0.0       0.0
*PART
$#                                                                         title
Cell_C1_Anode
$#     pid     secid       mid     eosid      hgid      grav    adpopt      tmid
         2         2         1         0         0         0         0         0
*PART
$#                                                                         title
Cell_C1_Cathode
$#     pid     secid       mid     eosid      hgid      grav    adpopt      tmid
         3         2         1         0         0         0         0         0
*PART
$#                                                                         title
Cell_C4
$#     pid     secid       mid     eosid      hgid      grav    adpopt      tmid
         4         2         1         0         0         0         0         0
*PART
$#                                                                         title
Cell_C3
$#     pid     secid       mid     eosid      hgid      grav    adpopt      tmid
         5         2         1         0         0         0         0         0
*PART
$#                                                                         title
Cell_C2
$#     pid     secid       mid     eosid      hgid      grav    adpopt      tmid
         6         2         1         0         0         0         0         0
*PART
$#                                                                         title
Impactor
$#     pid     secid       mid     eosid      hgid      grav    adpopt      tmid
         7         2         2         0         0         0         0         0
*MAT_ELASTIC
$#     mid        ro         e        pr        da        db  not used        
         27.87000E-9  210000.0       0.3       0.0       0.0         0
*SECTION_SHELL
$#   secid    elform      shrf       nip     propt   qr/irid     icomp     setyp
         1         2       1.0         2       1.0         0         0         1
$#      t1        t2        t3        t4      nloc     marea      idof    edgset
       8.0       8.0       8.0       8.0       0.0       0.0       0.0         0
*INITIAL_VELOCITY
$#    nsid    nsidex     boxid    irigid      icid    
         1         0         0         0         0
$#      vx        vy        vz       vxr       vyr       vzr   
       0.0       0.0   -6000.0       0.0       0.0       0.0
*SET_NODE_LIST
$#     sid       da1       da2       da3       da4    solver      
         1       0.0       0.0       0.0       0.0MECH
$#    nid1      nid2      nid3      nid4      nid5      nid6      nid7      nid8
      2345      2346      2347      2348      2349      2350      2351      2352
      2353      2354      2355      2356      2357      2358      2359      2360
      2361      2362      2363      2364      2365      2366      2367      2368
      2369      2370      2371      2372      2373      2374      2375      2376
      2377      2378      2379      2380      2381      2382      2383      2384
      2385      4713      4714      4715      4716      4717      4718      4719
      4720      4721      4722      4723      4724      4725      4726      4727
      7187      7188      7189      7190      7191      7192      7193      7194
      7195      7196      7197      7198      7199      7200      7201      7202
      7203      7204      7205      7206      7207      7208      7209      7210
      7211      7212      7213      7214      7215      7216      7217      7218
      7219      7220      7221      7222      7223      7224      7225      7226
      7227      7228      7229      7230      7231      7232      7233      7234
      7235      7236      7237      7238      7239      7240      7241      7242
      7243      7244      7245      7246      7247      7248      7249      7250
      7251      7252      7253      7254      7255      7256      7257      7258
      7259      7260      7261      7262      7263      7264      7265      7266
      7267      7268      7269      7270      7271      7272      7273      7274
      7275      7276      7277      7278      7279      7280      7281      7282
      7283      7284      7285      7286      7287      7288      7289      7290
$ ... 62 like lines cut
*ELEMENT_SHELL
$#   eid     pid      n1      n2      n3      n4      n5      n6      n7      n8
       1       1       2      22      91      68       0       0       0       0
       2       1       3       1      24      92       0       0       0       0
       3       1      67      47      90      93       0       0       0       0
       4       1      46      23      48      94       0       0       0       0
       5       1      69      68      91      95       0       0       0       0
       6       1      45      46      94      96       0       0       0       0
       7       1      70      69      95      97       0       0       0       0
       8       1      44      45      96      98       0       0       0       0
       9       1      71      70      97      99       0       0       0       0
      10       1      43      44      98     100       0       0       0       0
      11       1      72      71      99     101       0       0       0       0
      12       1      42      43     100     102       0       0       0       0
      13       1      73      72     101     103       0       0       0       0
      14       1      41      42     102     104       0       0       0       0
      15       1      74      73     103     105       0       0       0       0
      16       1      40      41     104     106       0       0       0       0
      17       1      75      74     105     107       0       0       0       0
      18       1      39      40     106     108       0       0       0       0
      19       1      76      75     107     109       0       0       0       0
      20       1      38      39     108     110       0       0       0       0
$ ... 2716 like lines cut
*NODE
$#   nid               x               y               z      tc      rc  
       1          -105.0          -120.0             0.0       0       0
       2           105.0          -120.0             0.0       0       0
       3           -95.0          -120.0             0.0       0       0
       4           -85.0          -120.0             0.0       0       0
       5           -75.0          -120.0             0.0       0       0
       6           -65.0          -120.0             0.0       0       0
       7           -55.0          -120.0             0.0       0       0
       8           -45.0          -120.0             0.0       0       0
       9           -35.0          -120.0             0.0       0       0
      10           -25.0          -120.0             0.0       0       0
      11           -15.0          -120.0             0.0       0       0
      12            -5.0          -120.0             0.0       0       0
      13             5.0          -120.0             0.0       0       0
      14            15.0          -120.0             0.0       0       0
      15            25.0          -120.0             0.0       0       0
      16            35.0          -120.0             0.0       0       0
      17            45.0          -120.0             0.0       0       0
      18            55.0          -120.0             0.0       0       0
      19            65.0          -120.0             0.0       0       0
      20            75.0          -120.0             0.0       0       0
$ ... 2934 like lines cut
*END
