                                                                         
                         ls-dyna smp.123264 s           date 01/12/2018

{BEGIN LEGEND}
 Entity #        Title
        5                                                                                     
        6                                                                                     
        9                                                                                     
       11                                                                                     
{END LEGEND}




 n o d a l   p r i n t   o u t   f o r   t i m e  s t e p       1                              ( at time 0.0000000E+00 )

 nodal point  x-disp     y-disp      z-disp      x-vel       y-vel       z-vel      x-accl      y-accl      z-accl      x-coor      y-coor      z-coor
        5  0.00000E+00 0.00000E+00 0.00000E+00 0.00000E+00 0.00000E+00 0.00000E+00 0.00000E+00 0.00000E+00-9.81000E-03 3.00000E+02 3.00000E+01 0.00000E+00
        6  0.00000E+00 0.00000E+00 0.00000E+00 0.00000E+00 0.00000E+00 0.00000E+00 0.00000E+00 0.00000E+00-9.81000E-03 3.00000E+02 2.00000E+01 0.00000E+00
        9  0.00000E+00 0.00000E+00 0.00000E+00 0.00000E+00 0.00000E+00 0.00000E+00 0.00000E+00 0.00000E+00-9.81000E-03 3.00000E+02 1.00000E+01 0.00000E+00
       11  0.00000E+00 0.00000E+00 0.00000E+00 0.00000E+00 0.00000E+00 0.00000E+00 0.00000E+00 0.00000E+00-9.81000E-03 3.00000E+02 0.00000E+00 0.00000E+00



 n o d a l   p r i n t   o u t   f o r   t i m e  s t e p       1                              ( at time 0.0000000E+00 )

 nodal point  x-rot      y-rot       z-rot       x-rot vel   y-rot vel   z-rot vel   x-rot acc   y-rot acc   z-rot acc
        5  0.00000E+00 0.00000E+00 0.00000E+00 0.00000E+00 0.00000E+00 0.00000E+00 0.00000E+00 0.00000E+00 0.00000E+00
        6  0.00000E+00 0.00000E+00 0.00000E+00 0.00000E+00 0.00000E+00 0.00000E+00 0.00000E+00 0.00000E+00 0.00000E+00
        9  0.00000E+00 0.00000E+00 0.00000E+00 0.00000E+00 0.00000E+00 0.00000E+00 0.00000E+00 0.00000E+00 0.00000E+00
       11  0.00000E+00 0.00000E+00 0.00000E+00 0.00000E+00 0.00000E+00 0.00000E+00 0.00000E+00 0.00000E+00 0.00000E+00



 n o d a l   p r i n t   o u t   f o r   t i m e  s t e p      61                              ( at time 9.9277783E-02 )

 nodal point  x-disp     y-disp      z-disp      x-vel       y-vel       z-vel      x-accl      y-accl      z-accl      x-coor      y-coor      z-coor
        5 -5.49632E-09-3.67355E-10-4.83847E-04-2.76695E-07-1.20255E-08-1.25718E-02-1.16866E-05-8.23588E-08-1.98895E-01 3.00000E+02 3.00000E+01-4.83847E-04
        6 -3.61551E-09-6.62829E-11-4.06940E-04-1.96950E-07-2.18628E-09-1.12931E-02-9.33905E-06-9.74622E-08-2.04892E-01 3.00000E+02 2.00000E+01-4.06940E-04
        9 -3.61568E-09 6.59633E-11-4.06940E-04-1.97105E-07 2.19236E-09-1.12931E-02-9.33598E-06 2.72272E-08-2.04892E-01 3.00000E+02 1.00000E+01-4.06940E-04
       11 -5.49654E-09 3.67071E-10-4.83847E-04-2.76874E-07 1.20587E-08-1.25718E-02-1.17959E-05 1.99839E-07-1.98895E-01 3.00000E+02 3.67071E-10-4.83847E-04



 n o d a l   p r i n t   o u t   f o r   t i m e  s t e p      61                              ( at time 9.9277783E-02 )

 nodal point  x-rot      y-rot       z-rot       x-rot vel   y-rot vel   z-rot vel   x-rot acc   y-rot acc   z-rot acc
        5 -9.10577E-06 3.75919E-05-1.45375E-11-1.61923E-04 8.86288E-04-9.44282E-10 2.77430E-04 1.09042E-02-6.19885E-08
        6 -5.26521E-06 2.98936E-05-1.33436E-11-7.44496E-05 7.46292E-04-1.06822E-09 9.92356E-04 1.05528E-02-6.37521E-08
        9  5.26521E-06 2.98936E-05 1.33436E-11 7.44495E-05 7.46292E-04 1.06822E-09-9.92184E-04 1.05528E-02 6.37478E-08
       11  9.10578E-06 3.75919E-05 1.45374E-11 1.61923E-04 8.86288E-04 9.44279E-10-2.77463E-04 1.09042E-02 6.19894E-08



 n o d a l   p r i n t   o u t   f o r   t i m e  s t e p     121                              ( at time 1.9855557E-01 )

 nodal point  x-disp     y-disp      z-disp      x-vel       y-vel       z-vel      x-accl      y-accl      z-accl      x-coor      y-coor      z-coor
        5 -1.72576E-07 1.04834E-10-2.88131E-03-4.15885E-06 3.81489E-08-3.69841E-02-8.41756E-05-4.08784E-07-3.00305E-01 3.00000E+02 3.00000E+01-2.88131E-03
        6 -1.54627E-07 1.93192E-10-2.76033E-03-3.99509E-06 1.38476E-08-3.74533E-02-8.52786E-05 2.29132E-07-3.12381E-01 3.00000E+02 2.00000E+01-2.76033E-03
        9 -1.54628E-07-1.97405E-10-2.76033E-03-3.99487E-06-1.40424E-08-3.74533E-02-8.50736E-05-9.99223E-08-3.12383E-01 3.00000E+02 1.00000E+01-2.76033E-03
       11 -1.72579E-07-1.06791E-10-2.88131E-03-4.15813E-06-3.80034E-08-3.69841E-02-8.38070E-05 1.48696E-08-3.00306E-01 3.00000E+02-1.06791E-10-2.88131E-03



 n o d a l   p r i n t   o u t   f o r   t i m e  s t e p     121                              ( at time 1.9855557E-01 )

 nodal point  x-rot      y-rot       z-rot       x-rot vel   y-rot vel   z-rot vel   x-rot acc   y-rot acc   z-rot acc
        5 -1.36963E-05 1.81146E-04-1.23789E-09 8.18297E-05 2.01156E-03-2.82594E-08 1.35200E-03 1.18214E-02-2.58139E-07
        6 -7.78005E-06 1.60206E-04-6.10832E-10 2.71691E-05 1.88251E-03-1.14915E-08 1.06327E-03 1.16623E-02-6.37539E-08
        9  7.78006E-06 1.60206E-04 6.10831E-10-2.71688E-05 1.88251E-03 1.14914E-08-1.06330E-03 1.16618E-02 6.37554E-08
       11  1.36963E-05 1.81146E-04 1.23789E-09-8.18306E-05 2.01156E-03 2.82595E-08-1.35161E-03 1.18204E-02 2.58074E-07



 n o d a l   p r i n t   o u t   f o r   t i m e  s t e p     182                              ( at time 2.9948798E-01 )

 nodal point  x-disp     y-disp      z-disp      x-vel       y-vel       z-vel      x-accl      y-accl      z-accl      x-coor      y-coor      z-coor
        5 -1.28488E-06 6.20018E-09-8.34901E-03-2.07778E-05 6.95073E-08-7.23190E-02-2.73904E-04-1.94297E-06-3.90802E-01 3.00000E+02 3.00000E+01-8.34901E-03
        6 -1.25311E-06 2.69129E-09-8.27419E-03-2.05432E-05 3.03919E-08-7.23414E-02-2.69198E-04 1.27971E-07-3.79870E-01 3.00000E+02 2.00000E+01-8.27419E-03
        9 -1.25310E-06-2.68452E-09-8.27419E-03-2.05424E-05-2.95830E-08-7.23414E-02-2.70998E-04-9.28953E-07-3.79873E-01 3.00000E+02 1.00000E+01-8.27419E-03
       11 -1.28486E-06-6.18673E-09-8.34901E-03-2.07774E-05-6.69729E-08-7.23190E-02-2.76458E-04 2.69926E-06-3.90805E-01 3.00000E+02-6.18673E-09-8.34901E-03



 n o d a l   p r i n t   o u t   f o r   t i m e  s t e p     182                              ( at time 2.9948798E-01 )

 nodal point  x-rot      y-rot       z-rot       x-rot vel   y-rot vel   z-rot vel   x-rot acc   y-rot acc   z-rot acc
        5 -6.55177E-06 4.44790E-04-3.68772E-09 2.14933E-05 3.18321E-03-6.77149E-09-1.38478E-03 1.11461E-02 6.09867E-07
        6 -4.02410E-06 4.10896E-04-1.28105E-10-9.21485E-07 3.05612E-03 4.65954E-08-7.65052E-04 1.07409E-02 1.17924E-06
        9  4.02411E-06 4.10896E-04 1.28107E-10 9.20065E-07 3.05612E-03-4.65949E-08 7.64911E-04 1.07401E-02-1.17920E-06
       11  6.55181E-06 4.44790E-04 3.68771E-09-2.14931E-05 3.18321E-03 6.77151E-09 1.38487E-03 1.11447E-02-6.09898E-07



 n o d a l   p r i n t   o u t   f o r   t i m e  s t e p     242                              ( at time 3.9876576E-01 )

 nodal point  x-disp     y-disp      z-disp      x-vel       y-vel       z-vel      x-accl      y-accl      z-accl      x-coor      y-coor      z-coor
        5 -5.15315E-06 1.35500E-08-1.75541E-02-6.14449E-05 1.04610E-07-1.13158E-01-5.78571E-04-2.08609E-06-4.36008E-01 3.00000E+02 3.00000E+01-1.75541E-02
        6 -5.08423E-06 5.94013E-09-1.74658E-02-6.11536E-05 4.24033E-08-1.13270E-01-5.85332E-04 1.48478E-06-4.47257E-01 3.00000E+02 2.00000E+01-1.74658E-02
        9 -5.08424E-06-5.93861E-09-1.74658E-02-6.11515E-05-3.97079E-08-1.13270E-01-5.85429E-04-4.04230E-06-4.47258E-01 3.00000E+02 1.00000E+01-1.74658E-02
       11 -5.15317E-06-1.35512E-08-1.75541E-02-6.14415E-05-1.09953E-07-1.13158E-01-5.78843E-04 6.16630E-06-4.36011E-01 3.00000E+02-1.35512E-08-1.75541E-02



 n o d a l   p r i n t   o u t   f o r   t i m e  s t e p     242                              ( at time 3.9876576E-01 )

 nodal point  x-rot      y-rot       z-rot       x-rot vel   y-rot vel   z-rot vel   x-rot acc   y-rot acc   z-rot acc
        5 -7.24383E-06 8.17387E-04-2.89068E-09 2.92864E-05 4.29987E-03-1.35657E-08 1.89859E-03 1.08686E-02-1.29826E-06
        6 -4.21163E-06 7.69225E-04 1.04219E-08 1.31148E-05 4.15970E-03 1.72797E-07 1.96112E-04 1.12581E-02 1.83277E-06
        9  4.21160E-06 7.69226E-04-1.04219E-08-1.31172E-05 4.15970E-03-1.72796E-07-1.96028E-04 1.12573E-02-1.83283E-06
       11  7.24382E-06 8.17387E-04 2.89070E-09-2.92856E-05 4.29986E-03 1.35651E-08-1.89861E-03 1.08670E-02 1.29829E-06



 n o d a l   p r i n t   o u t   f o r   t i m e  s t e p     303                              ( at time 4.9969817E-01 )

 nodal point  x-disp     y-disp      z-disp      x-vel       y-vel       z-vel      x-accl      y-accl      z-accl      x-coor      y-coor      z-coor
        5 -1.50689E-05 2.81751E-08-3.13381E-02-1.41879E-04 1.82172E-07-1.60374E-01-1.07621E-03-1.13829E-05-5.03642E-01 3.00000E+02 3.00000E+01-3.13381E-02
        6 -1.50192E-05 1.24808E-08-3.13031E-02-1.42399E-04 6.94991E-08-1.60988E-01-1.07151E-03 9.17657E-06-4.97752E-01 3.00000E+02 2.00000E+01-3.13031E-02
        9 -1.50192E-05-1.25710E-08-3.13031E-02-1.42401E-04-7.25793E-08-1.60988E-01-1.06861E-03-8.11024E-06-4.97745E-01 3.00000E+02 1.00000E+01-3.13031E-02
       11 -1.50690E-05-2.82760E-08-3.13381E-02-1.41884E-04-1.80787E-07-1.60374E-01-1.07166E-03 8.58226E-06-5.03636E-01 3.00000E+02-2.82760E-08-3.13381E-02



 n o d a l   p r i n t   o u t   f o r   t i m e  s t e p     303                              ( at time 4.9969817E-01 )

 nodal point  x-rot      y-rot       z-rot       x-rot vel   y-rot vel   z-rot vel   x-rot acc   y-rot acc   z-rot acc
        5  1.19164E-06 1.31120E-03-7.85421E-09 8.67049E-05 5.46615E-03-3.87136E-08-5.53870E-04 1.13473E-02 9.26726E-07
        6 -3.03341E-07 1.24912E-03 3.89343E-08 5.34303E-05 5.32882E-03 4.32751E-07-5.17150E-04 1.15617E-02 4.71726E-06
        9  3.03179E-07 1.24912E-03-3.89343E-08-5.34289E-05 5.32882E-03-4.32755E-07 5.18624E-04 1.15629E-02-4.71908E-06
       11 -1.19154E-06 1.31120E-03 7.85416E-09-8.67078E-05 5.46615E-03 3.87176E-08 5.53237E-04 1.13499E-02-9.26017E-07



 n o d a l   p r i n t   o u t   f o r   t i m e  s t e p     363                              ( at time 5.9897575E-01 )

 nodal point  x-disp     y-disp      z-disp      x-vel       y-vel       z-vel      x-accl      y-accl      z-accl      x-coor      y-coor      z-coor
        5 -3.54786E-05 4.45328E-08-4.98612E-02-2.77550E-04 1.66232E-07-2.12565E-01-1.71119E-03-4.26116E-07-5.43766E-01 3.00000E+02 3.00000E+01-4.98612E-02
        6 -3.54553E-05 1.99774E-08-4.98529E-02-2.77648E-04 7.07739E-08-2.12636E-01-1.71014E-03 6.44808E-07-5.45378E-01 3.00000E+02 2.00000E+01-4.98529E-02
        9 -3.54553E-05-2.01191E-08-4.98529E-02-2.77652E-04-7.28075E-08-2.12636E-01-1.70913E-03-1.19634E-06-5.45367E-01 3.00000E+02 1.00000E+01-4.98529E-02
       11 -3.54788E-05-4.46953E-08-4.98612E-02-2.77564E-04-1.69995E-07-2.12565E-01-1.70327E-03 1.93902E-06-5.43779E-01 3.00000E+02-4.46953E-08-4.98612E-02



 n o d a l   p r i n t   o u t   f o r   t i m e  s t e p     363                              ( at time 5.9897575E-01 )

 nodal point  x-rot      y-rot       z-rot       x-rot vel   y-rot vel   z-rot vel   x-rot acc   y-rot acc   z-rot acc
        5  6.05263E-06 1.91119E-03-4.94420E-09 1.48534E-05 6.59519E-03 9.83653E-08 7.75616E-06 1.12227E-02 3.40109E-07
        6  1.94123E-06 1.83531E-03 1.10680E-07 1.72477E-05 6.44465E-03 1.01095E-06 3.84242E-04 1.11839E-02 6.01571E-06
        9 -1.94131E-06 1.83532E-03-1.10680E-07-1.72537E-05 6.44466E-03-1.01095E-06-3.81675E-04 1.11831E-02-6.02016E-06
       11 -6.05235E-06 1.91119E-03 4.94391E-09-1.48456E-05 6.59519E-03-9.83781E-08-1.16250E-05 1.12208E-02-3.33116E-07



 n o d a l   p r i n t   o u t   f o r   t i m e  s t e p     424                              ( at time 6.9990798E-01 )

 nodal point  x-disp     y-disp      z-disp      x-vel       y-vel       z-vel      x-accl      y-accl      z-accl      x-coor      y-coor      z-coor
        5 -7.36336E-05 6.53693E-08-7.41960E-02-4.89120E-04 2.72065E-07-2.69436E-01-2.57320E-03-2.57454E-05-5.87296E-01 3.00000E+02 3.00000E+01-7.41960E-02
        6 -7.36966E-05 2.95858E-08-7.42247E-02-4.91063E-04 1.12745E-07-2.70136E-01-2.58091E-03 9.82487E-06-5.90867E-01 3.00000E+02 2.00000E+01-7.42247E-02
        9 -7.36966E-05-2.98421E-08-7.42247E-02-4.91061E-04-1.00636E-07-2.70136E-01-2.58092E-03-1.62520E-05-5.90878E-01 3.00000E+02 1.00000E+01-7.42247E-02
       11 -7.36338E-05-6.56189E-08-7.41960E-02-4.89127E-04-2.63954E-07-2.69436E-01-2.56279E-03 1.93217E-05-5.87304E-01 3.00000E+02-6.56189E-08-7.41960E-02



 n o d a l   p r i n t   o u t   f o r   t i m e  s t e p     424                              ( at time 6.9990798E-01 )

 nodal point  x-rot      y-rot       z-rot       x-rot vel   y-rot vel   z-rot vel   x-rot acc   y-rot acc   z-rot acc
        5  1.23483E-05 2.63567E-03-2.86015E-09 1.07697E-04 7.74121E-03-5.72478E-08 4.21695E-05 1.16742E-02 3.86357E-07
        6  4.93161E-06 2.54537E-03 2.50134E-07 4.98749E-05 7.59862E-03 1.77566E-06 5.88384E-04 1.15313E-02 8.73527E-06
        9 -4.93174E-06 2.54537E-03-2.50134E-07-4.98752E-05 7.59862E-03-1.77566E-06-5.89524E-04 1.15296E-02-8.73225E-06
       11 -1.23481E-05 2.63567E-03 2.86014E-09-1.07701E-04 7.74121E-03 5.72580E-08-4.14294E-05 1.16704E-02-3.88039E-07



 n o d a l   p r i n t   o u t   f o r   t i m e  s t e p     484                              ( at time 7.9918560E-01 )

 nodal point  x-disp     y-disp      z-disp      x-vel       y-vel       z-vel      x-accl      y-accl      z-accl      x-coor      y-coor      z-coor
        5 -1.36686E-04 9.09134E-08-1.03988E-01-7.93934E-04 2.51862E-07-3.30521E-01-3.63582E-03 4.87363E-06-6.34725E-01 3.00000E+02 3.00000E+01-1.03988E-01
        6 -1.36967E-04 4.16689E-08-1.04075E-01-7.95820E-04 1.21284E-07-3.30853E-01-3.62608E-03-5.61555E-06-6.29875E-01 3.00000E+02 2.00000E+01-1.04075E-01
        9 -1.36967E-04-4.23439E-08-1.04075E-01-7.95819E-04-1.20377E-07-3.30853E-01-3.62345E-03 4.16152E-06-6.29877E-01 3.00000E+02 1.00000E+01-1.04075E-01
       11 -1.36687E-04-9.16185E-08-1.03988E-01-7.93931E-04-2.61065E-07-3.30521E-01-3.63534E-03 9.69182E-06-6.34709E-01 3.00000E+02-9.16185E-08-1.03988E-01



 n o d a l   p r i n t   o u t   f o r   t i m e  s t e p     484                              ( at time 7.9918560E-01 )

 nodal point  x-rot      y-rot       z-rot       x-rot vel   y-rot vel   z-rot vel   x-rot acc   y-rot acc   z-rot acc
        5  2.11963E-05 3.46223E-03-6.75106E-10 6.39860E-05 8.89813E-03 1.27796E-07-7.46481E-04 1.20708E-02 3.12033E-06
        6  9.54221E-06 3.35813E-03 4.85986E-07 2.18582E-05 8.75883E-03 3.08987E-06-1.28078E-04 1.16660E-02 1.50676E-05
        9 -9.54208E-06 3.35813E-03-4.85987E-07-2.18530E-05 8.75883E-03-3.08989E-06 1.27134E-04 1.16687E-02-1.50648E-05
       11 -2.11960E-05 3.46223E-03 6.74821E-10-6.39843E-05 8.89813E-03-1.27799E-07 7.50398E-04 1.20759E-02-3.13352E-06



 n o d a l   p r i n t   o u t   f o r   t i m e  s t e p     544                              ( at time 8.9846321E-01 )

 nodal point  x-disp     y-disp      z-disp      x-vel       y-vel       z-vel      x-accl      y-accl      z-accl      x-coor      y-coor      z-coor
        5 -2.35598E-04 1.17144E-07-1.40025E-01-1.21193E-03 2.91145E-07-3.94862E-01-4.83347E-03 1.44822E-05-6.63034E-01 3.00000E+02 3.00000E+01-1.40025E-01
        6 -2.36098E-04 5.40613E-08-1.40145E-01-1.21528E-03 1.43156E-07-3.95373E-01-4.87493E-03-1.04778E-05-6.69177E-01 3.00000E+02 2.00000E+01-1.40145E-01
        9 -2.36098E-04-5.48078E-08-1.40145E-01-1.21528E-03-1.35468E-07-3.95373E-01-4.87405E-03 3.36979E-06-6.69165E-01 3.00000E+02 1.00000E+01-1.40145E-01
       11 -2.35598E-04-1.17908E-07-1.40025E-01-1.21191E-03-2.83321E-07-3.94862E-01-4.83387E-03-1.41025E-05-6.63028E-01 3.00000E+02-1.17908E-07-1.40025E-01



 n o d a l   p r i n t   o u t   f o r   t i m e  s t e p     544                              ( at time 8.9846321E-01 )

 nodal point  x-rot      y-rot       z-rot       x-rot vel   y-rot vel   z-rot vel   x-rot acc   y-rot acc   z-rot acc
        5  2.65309E-05 4.40189E-03 1.83085E-08 8.36593E-05 1.00029E-02 1.01451E-07 1.19119E-03 1.16386E-02-4.26117E-06
        6  1.24163E-05 4.28322E-03 8.71146E-07 3.52124E-05 9.86442E-03 4.72413E-06 6.74403E-05 1.18197E-02 1.92848E-05
        9 -1.24162E-05 4.28322E-03-8.71147E-07-3.52129E-05 9.86442E-03-4.72414E-06-6.95358E-05 1.18228E-02-1.92761E-05
       11 -2.65303E-05 4.40189E-03-1.83092E-08-8.36438E-05 1.00029E-02-1.01512E-07-1.19475E-03 1.16447E-02 4.27576E-06



 n o d a l   p r i n t   o u t   f o r   t i m e  s t e p     605                              ( at time 9.9939544E-01 )

 nodal point  x-disp     y-disp      z-disp      x-vel       y-vel       z-vel      x-accl      y-accl      z-accl      x-coor      y-coor      z-coor
        5 -3.85612E-04 1.50474E-07-1.83397E-01-1.77817E-03 3.39995E-07-4.64259E-01-6.42836E-03 9.34360E-06-7.12536E-01 3.00000E+02 3.00000E+01-1.83397E-01
        6 -3.86598E-04 7.03727E-08-1.83584E-01-1.78351E-03 1.68195E-07-4.64874E-01-6.41564E-03-7.21999E-06-7.07170E-01 3.00000E+02 2.00000E+01-1.83584E-01
        9 -3.86598E-04-7.09908E-08-1.83584E-01-1.78352E-03-1.53361E-07-4.64874E-01-6.41231E-03 2.35536E-06-7.07191E-01 3.00000E+02 1.00000E+01-1.83584E-01
       11 -3.85612E-04-1.51025E-07-1.83397E-01-1.77818E-03-3.33292E-07-4.64259E-01-6.41922E-03-1.54258E-05-7.12517E-01 3.00000E+02-1.51025E-07-1.83397E-01



 n o d a l   p r i n t   o u t   f o r   t i m e  s t e p     605                              ( at time 9.9939544E-01 )

 nodal point  x-rot      y-rot       z-rot       x-rot vel   y-rot vel   z-rot vel   x-rot acc   y-rot acc   z-rot acc
        5  3.68567E-05 5.47028E-03 2.47665E-08 8.93301E-05 1.11515E-02 1.73292E-07-4.49084E-04 1.17350E-02 3.28306E-06
        6  1.75046E-05 5.33726E-03 1.45269E-06 4.96900E-05 1.10105E-02 6.94514E-06-6.01002E-04 1.19841E-02 2.90534E-05
        9 -1.75048E-05 5.33726E-03-1.45269E-06-4.96840E-05 1.10105E-02-6.94518E-06 5.99933E-04 1.19839E-02-2.90480E-05
       11 -3.68563E-05 5.47027E-03-2.47659E-08-8.93480E-05 1.11515E-02-1.73197E-07 4.56177E-04 1.17348E-02-3.32031E-06



 n o d a l   p r i n t   o u t   f o r   t i m e  s t e p     665                              ( at time 1.0986730E+00 )

 nodal point  x-disp     y-disp      z-disp      x-vel       y-vel       z-vel      x-accl      y-accl      z-accl      x-coor      y-coor      z-coor
        5 -5.97243E-04 1.82115E-07-2.33112E-01-2.50188E-03 3.20985E-07-5.36538E-01-8.17853E-03 9.92533E-06-7.40705E-01 2.99999E+02 3.00000E+01-2.33112E-01
        6 -5.98716E-04 8.55982E-08-2.33340E-01-2.50711E-03 1.57503E-07-5.36899E-01-8.20239E-03-3.94348E-06-7.43661E-01 2.99999E+02 2.00000E+01-2.33340E-01
        9 -5.98716E-04-8.64701E-08-2.33340E-01-2.50712E-03-1.60603E-07-5.36899E-01-8.20287E-03 1.58345E-06-7.43679E-01 2.99999E+02 1.00000E+01-2.33340E-01
       11 -5.97244E-04-1.82872E-07-2.33112E-01-2.50190E-03-3.13449E-07-5.36538E-01-8.17850E-03-2.39919E-06-7.40721E-01 2.99999E+02-1.82872E-07-2.33112E-01



 n o d a l   p r i n t   o u t   f o r   t i m e  s t e p     665                              ( at time 1.0986730E+00 )

 nodal point  x-rot      y-rot       z-rot       x-rot vel   y-rot vel   z-rot vel   x-rot acc   y-rot acc   z-rot acc
        5  4.36080E-05 6.63569E-03 5.86429E-08 5.50124E-05 1.23059E-02 4.65414E-07 4.33614E-04 1.18703E-02-1.70817E-06
        6  2.06934E-05 6.48848E-03 2.29213E-06 3.81334E-05 1.21537E-02 9.89395E-06 2.20519E-04 1.19420E-02 3.11839E-05
        9 -2.06939E-05 6.48848E-03-2.29213E-06-3.81387E-05 1.21537E-02-9.89394E-06-2.15394E-04 1.19349E-02-3.12163E-05
       11 -4.36074E-05 6.63569E-03-5.86430E-08-5.50076E-05 1.23059E-02-4.65444E-07-4.27215E-04 1.18568E-02 1.66844E-06



 n o d a l   p r i n t   o u t   f o r   t i m e  s t e p     726                              ( at time 1.1996053E+00 )

 nodal point  x-disp     y-disp      z-disp      x-vel       y-vel       z-vel      x-accl      y-accl      z-accl      x-coor      y-coor      z-coor
        5 -8.95528E-04 2.20153E-07-2.91157E-01-3.42812E-03 4.54411E-07-6.12919E-01-1.02587E-02-2.12351E-05-7.76370E-01 2.99999E+02 3.00000E+01-2.91157E-01
        6 -8.97776E-04 1.04227E-07-2.91446E-01-3.43837E-03 1.88117E-07-6.13741E-01-1.02902E-02 1.43980E-05-7.77463E-01 2.99999E+02 2.00000E+01-2.91446E-01
        9 -8.97777E-04-1.05810E-07-2.91446E-01-3.43838E-03-2.15230E-07-6.13741E-01-1.02851E-02-1.23411E-05-7.77480E-01 2.99999E+02 1.00000E+01-2.91446E-01
       11 -8.95528E-04-2.21576E-07-2.91157E-01-3.42814E-03-4.58263E-07-6.12919E-01-1.02573E-02 9.82214E-06-7.76396E-01 2.99999E+02-2.21576E-07-2.91157E-01



 n o d a l   p r i n t   o u t   f o r   t i m e  s t e p     726                              ( at time 1.1996053E+00 )

 nodal point  x-rot      y-rot       z-rot       x-rot vel   y-rot vel   z-rot vel   x-rot acc   y-rot acc   z-rot acc
        5  5.32548E-05 7.93828E-03 8.34847E-08 1.21292E-04 1.34836E-02 1.22320E-07-2.28320E-04 1.06526E-02 2.85070E-06
        6  2.51959E-05 7.77651E-03 3.46766E-06 6.14014E-05 1.33393E-02 1.33979E-05 3.90420E-04 1.05726E-02 3.76465E-05
        9 -2.51956E-05 7.77651E-03-3.46767E-06-6.14004E-05 1.33393E-02-1.33979E-05-4.03139E-04 1.05719E-02-3.75495E-05
       11 -5.32542E-05 7.93828E-03-8.34853E-08-1.21285E-04 1.34835E-02-1.22366E-07 2.21275E-04 1.06501E-02-2.79638E-06



 n o d a l   p r i n t   o u t   f o r   t i m e  s t e p     786                              ( at time 1.2988829E+00 )

 nodal point  x-disp     y-disp      z-disp      x-vel       y-vel       z-vel      x-accl      y-accl      z-accl      x-coor      y-coor      z-coor
        5 -1.29102E-03 2.61150E-07-3.55952E-01-4.55862E-03 3.94239E-07-6.91617E-01-1.25510E-02 4.27973E-06-8.06167E-01 2.99999E+02 3.00000E+01-3.55952E-01
        6 -1.29429E-03 1.24718E-07-3.56308E-01-4.56817E-03 1.74998E-07-6.92082E-01-1.25495E-02-7.44386E-06-8.03459E-01 2.99999E+02 2.00000E+01-3.56308E-01
        9 -1.29429E-03-1.26943E-07-3.56308E-01-4.56819E-03-2.31753E-07-6.92082E-01-1.25358E-02 1.81572E-05-8.03440E-01 2.99999E+02 1.00000E+01-3.56308E-01
       11 -1.29102E-03-2.63079E-07-3.55952E-01-4.55866E-03-3.71025E-07-6.91617E-01-1.25380E-02-3.29226E-05-8.06170E-01 2.99999E+02-2.63079E-07-3.55952E-01



 n o d a l   p r i n t   o u t   f o r   t i m e  s t e p     786                              ( at time 1.2988829E+00 )

 nodal point  x-rot      y-rot       z-rot       x-rot vel   y-rot vel   z-rot vel   x-rot acc   y-rot acc   z-rot acc
        5  6.34586E-05 9.33413E-03 1.16868E-07 7.89534E-05 1.46264E-02 6.05597E-07-4.85700E-04 1.06125E-02 5.63473E-06
        6  3.03061E-05 9.15816E-03 5.02475E-06 3.09150E-05 1.44825E-02 1.81347E-05-1.95660E-05 1.04516E-02 4.98177E-05
        9 -3.03061E-05 9.15816E-03-5.02476E-06-3.09322E-05 1.44824E-02-1.81346E-05 2.18141E-05 1.04538E-02-4.98380E-05
       11 -6.34578E-05 9.33413E-03-1.16870E-07-7.89507E-05 1.46264E-02-6.05613E-07 4.80350E-04 1.06156E-02-5.58670E-06



 n o d a l   p r i n t   o u t   f o r   t i m e  s t e p     847                              ( at time 1.3998151E+00 )

 nodal point  x-disp     y-disp      z-disp      x-vel       y-vel       z-vel      x-accl      y-accl      z-accl      x-coor      y-coor      z-coor
        5 -1.82034E-03 2.99912E-07-4.29959E-01-5.95231E-03 4.28537E-07-7.74058E-01-1.52339E-02-1.16624E-05-8.35686E-01 2.99998E+02 3.00000E+01-4.29959E-01
        6 -1.82471E-03 1.43697E-07-4.30365E-01-5.96528E-03 1.73316E-07-7.74662E-01-1.52679E-02 1.73970E-05-8.38193E-01 2.99998E+02 2.00000E+01-4.30365E-01
        9 -1.82471E-03-1.46942E-07-4.30365E-01-5.96529E-03-2.03029E-07-7.74662E-01-1.52649E-02-1.62963E-05-8.38131E-01 2.99998E+02 1.00000E+01-4.30365E-01
       11 -1.82034E-03-3.02873E-07-4.29959E-01-5.95234E-03-4.61294E-07-7.74058E-01-1.52291E-02 1.30716E-05-8.35706E-01 2.99998E+02-3.02873E-07-4.29959E-01



 n o d a l   p r i n t   o u t   f o r   t i m e  s t e p     847                              ( at time 1.3998151E+00 )

 nodal point  x-rot      y-rot       z-rot       x-rot vel   y-rot vel   z-rot vel   x-rot acc   y-rot acc   z-rot acc
        5  7.13449E-05 1.08646E-02 1.84730E-07 9.98632E-05 1.57157E-02 5.18052E-07 8.26456E-04 1.26180E-02-7.08805E-06
        6  3.43434E-05 1.06738E-02 7.11942E-06 3.98529E-05 1.55744E-02 2.35354E-05-2.26527E-04 1.26890E-02 6.17524E-05
        9 -3.43443E-05 1.06738E-02-7.11941E-06-3.98672E-05 1.55744E-02-2.35353E-05 2.38369E-04 1.26916E-02-6.18762E-05
       11 -7.13439E-05 1.08646E-02-1.84735E-07-9.98311E-05 1.57157E-02-5.18379E-07-8.41836E-04 1.26241E-02 7.24953E-06



 n o d a l   p r i n t   o u t   f o r   t i m e  s t e p     907                              ( at time 1.4990927E+00 )

 nodal point  x-disp     y-disp      z-disp      x-vel       y-vel       z-vel      x-accl      y-accl      z-accl      x-coor      y-coor      z-coor
        5 -2.49210E-03 3.47044E-07-5.11031E-01-7.59953E-03 4.41791E-07-8.58183E-01-1.80711E-02 2.39564E-05-8.61039E-01 2.99997E+02 3.00000E+01-5.11031E-01
        6 -2.49801E-03 1.67810E-07-5.11510E-01-7.61685E-03 2.61671E-07-8.58938E-01-1.80862E-02-1.04429E-05-8.58811E-01 2.99997E+02 2.00000E+01-5.11510E-01
        9 -2.49801E-03-1.71736E-07-5.11510E-01-7.61684E-03-2.65995E-07-8.58938E-01-1.80864E-02 2.77652E-05-8.58934E-01 2.99997E+02 1.00000E+01-5.11510E-01
       11 -2.49210E-03-3.50640E-07-5.11031E-01-7.59949E-03-4.18135E-07-8.58183E-01-1.80771E-02-2.35313E-05-8.61076E-01 2.99997E+02-3.50640E-07-5.11031E-01



 n o d a l   p r i n t   o u t   f o r   t i m e  s t e p     907                              ( at time 1.4990927E+00 )

 nodal point  x-rot      y-rot       z-rot       x-rot vel   y-rot vel   z-rot vel   x-rot acc   y-rot acc   z-rot acc
        5  8.28967E-05 1.24840E-02 2.26474E-07 1.13906E-04 1.68380E-02 5.26508E-07-5.16151E-04 9.63700E-03 7.65424E-06
        6  3.90987E-05 1.22788E-02 9.76176E-06 5.80557E-05 1.66929E-02 2.97467E-05-1.91157E-04 9.79723E-03 7.25965E-05
        9 -3.90997E-05 1.22788E-02-9.76177E-06-5.80416E-05 1.66929E-02-2.97469E-05 1.63360E-04 9.78634E-03-7.22613E-05
       11 -8.28951E-05 1.24840E-02-2.26486E-07-1.13911E-04 1.68380E-02-5.26425E-07 5.19685E-04 9.61618E-03-7.69419E-06



 n o d a l   p r i n t   o u t   f o r   t i m e  s t e p     967                              ( at time 1.5983703E+00 )

 nodal point  x-disp     y-disp      z-disp      x-vel       y-vel       z-vel      x-accl      y-accl      z-accl      x-coor      y-coor      z-coor
        5 -3.34243E-03 3.85158E-07-6.00614E-01-9.55561E-03 3.60325E-07-9.45838E-01-2.14065E-02 6.44287E-05-9.05644E-01 2.99997E+02 3.00000E+01-6.00614E-01
        6 -3.34990E-03 1.87382E-07-6.01144E-01-9.56950E-03 2.02279E-07-9.46128E-01-2.14305E-02-2.87494E-05-9.04797E-01 2.99997E+02 2.00000E+01-6.01144E-01
        9 -3.34990E-03-1.91127E-07-6.01144E-01-9.56951E-03-1.88498E-07-9.46128E-01-2.14306E-02 3.38239E-05-9.04767E-01 2.99997E+02 1.00000E+01-6.01144E-01
       11 -3.34243E-03-3.88665E-07-6.00614E-01-9.55560E-03-2.87090E-07-9.45839E-01-2.14157E-02-6.87828E-05-9.05565E-01 2.99997E+02-3.88665E-07-6.00614E-01



 n o d a l   p r i n t   o u t   f o r   t i m e  s t e p     967                              ( at time 1.5983703E+00 )

 nodal point  x-rot      y-rot       z-rot       x-rot vel   y-rot vel   z-rot vel   x-rot acc   y-rot acc   z-rot acc
        5  9.09043E-05 1.42069E-02 3.28443E-07 5.29257E-05 1.79411E-02 1.47985E-06 3.22699E-04 1.34065E-02-2.37562E-06
        6  4.32154E-05 1.39875E-02 1.31067E-05 2.56000E-05 1.77923E-02 3.76992E-05-1.74283E-04 1.32209E-02 8.40062E-05
        9 -4.32163E-05 1.39875E-02-1.31067E-05-2.56265E-05 1.77923E-02-3.76989E-05 1.80817E-04 1.32345E-02-8.40984E-05
       11 -9.09021E-05 1.42069E-02-3.28461E-07-5.28952E-05 1.79411E-02-1.48024E-06-3.22080E-04 1.34346E-02 2.36267E-06



 n o d a l   p r i n t   o u t   f o r   t i m e  s t e p    1028                              ( at time 1.6993025E+00 )

 nodal point  x-disp     y-disp      z-disp      x-vel       y-vel       z-vel      x-accl      y-accl      z-accl      x-coor      y-coor      z-coor
        5 -4.42354E-03 4.35143E-07-7.00772E-01-1.18840E-02 6.32640E-07-1.03741E+00-2.47985E-02-1.17775E-05-9.12118E-01 2.99996E+02 3.00000E+01-7.00772E-01
        6 -4.43298E-03 2.12978E-07-7.01361E-01-1.19113E-02 3.41190E-07-1.03843E+00-2.49119E-02 1.62310E-06-9.17573E-01 2.99996E+02 2.00000E+01-7.01361E-01
        9 -4.43298E-03-2.16800E-07-7.01361E-01-1.19113E-02-3.50252E-07-1.03843E+00-2.49116E-02-1.09139E-06-9.17626E-01 2.99996E+02 1.00000E+01-7.01361E-01
       11 -4.42354E-03-4.38506E-07-7.00772E-01-1.18840E-02-5.94170E-07-1.03741E+00-2.48005E-02 8.07993E-06-9.12019E-01 2.99996E+02-4.38506E-07-7.00772E-01



 n o d a l   p r i n t   o u t   f o r   t i m e  s t e p    1028                              ( at time 1.6993025E+00 )

 nodal point  x-rot      y-rot       z-rot       x-rot vel   y-rot vel   z-rot vel   x-rot acc   y-rot acc   z-rot acc
        5  1.00674E-04 1.60842E-02 4.23769E-07 1.51264E-04 1.91663E-02 2.16657E-07 7.01640E-04 1.08639E-02-9.17120E-06
        6  4.76207E-05 1.58496E-02 1.73275E-05 7.20825E-05 1.90220E-02 4.58442E-05 4.15046E-04 1.10194E-02 8.78243E-05
        9 -4.76210E-05 1.58496E-02-1.73275E-05-7.21097E-05 1.90220E-02-4.58438E-05-4.15959E-04 1.10252E-02-8.78123E-05
       11 -1.00672E-04 1.60842E-02-4.23782E-07-1.51246E-04 1.91663E-02-2.16922E-07-6.80820E-04 1.08729E-02 8.84287E-06



 n o d a l   p r i n t   o u t   f o r   t i m e  s t e p    1088                              ( at time 1.7985800E+00 )

 nodal point  x-disp     y-disp      z-disp      x-vel       y-vel       z-vel      x-accl      y-accl      z-accl      x-coor      y-coor      z-coor
        5 -5.73422E-03 4.87547E-07-8.08409E-01-1.45457E-02 3.19452E-07-1.13020E+00-2.89674E-02 1.89809E-05-9.55621E-01 2.99994E+02 3.00000E+01-8.08409E-01
        6 -5.74637E-03 2.41449E-07-8.09085E-01-1.45674E-02 1.94562E-07-1.13063E+00-2.88027E-02-3.61559E-05-9.44652E-01 2.99994E+02 2.00000E+01-8.09085E-01
        9 -5.74637E-03-2.44474E-07-8.09085E-01-1.45674E-02-2.14598E-07-1.13063E+00-2.88167E-02 5.59689E-07-9.44627E-01 2.99994E+02 1.00000E+01-8.09085E-01
       11 -5.73422E-03-4.90272E-07-8.08409E-01-1.45457E-02-3.88002E-07-1.13020E+00-2.89876E-02-2.38859E-06-9.55666E-01 2.99994E+02-4.90272E-07-8.08409E-01



 n o d a l   p r i n t   o u t   f o r   t i m e  s t e p    1088                              ( at time 1.7985800E+00 )

 nodal point  x-rot      y-rot       z-rot       x-rot vel   y-rot vel   z-rot vel   x-rot acc   y-rot acc   z-rot acc
        5  1.13752E-04 1.80370E-02 4.87141E-07 7.48224E-05 2.01625E-02 1.70280E-06-1.67670E-03 1.14020E-02 3.16656E-05
        6  5.41164E-05 1.77881E-02 2.23865E-05 3.61342E-05 2.00136E-02 5.65222E-05-7.01552E-04 1.12195E-02 1.20802E-04
        9 -5.41161E-05 1.77881E-02-2.23865E-05-3.61109E-05 2.00136E-02-5.65227E-05 6.98477E-04 1.12177E-02-1.20747E-04
       11 -1.13748E-04 1.80370E-02-4.87185E-07-7.47993E-05 2.01626E-02-1.70315E-06 1.65888E-03 1.13995E-02-3.13512E-05



 n o d a l   p r i n t   o u t   f o r   t i m e  s t e p    1149                              ( at time 1.8995122E+00 )

 nodal point  x-disp     y-disp      z-disp      x-vel       y-vel       z-vel      x-accl      y-accl      z-accl      x-coor      y-coor      z-coor
        5 -7.36011E-03 5.18265E-07-9.27499E-01-1.76953E-02 4.34349E-07-1.22849E+00-3.34502E-02-1.07556E-05-9.86500E-01 2.99993E+02 3.00000E+01-9.27499E-01
        6 -7.37415E-03 2.55990E-07-9.28196E-01-1.77190E-02 1.98961E-07-1.22890E+00-3.37145E-02-1.62870E-05-9.98432E-01 2.99993E+02 2.00000E+01-9.28196E-01
        9 -7.37416E-03-2.60227E-07-9.28196E-01-1.77190E-02-2.24275E-07-1.22890E+00-3.37215E-02 2.78259E-05-9.98400E-01 2.99993E+02 1.00000E+01-9.28196E-01
       11 -7.36012E-03-5.21996E-07-9.27499E-01-1.76954E-02-4.23741E-07-1.22849E+00-3.34558E-02-4.13520E-05-9.86504E-01 2.99993E+02-5.21996E-07-9.27499E-01



 n o d a l   p r i n t   o u t   f o r   t i m e  s t e p    1149                              ( at time 1.8995122E+00 )

 nodal point  x-rot      y-rot       z-rot       x-rot vel   y-rot vel   z-rot vel   x-rot acc   y-rot acc   z-rot acc
        5  1.18072E-04 2.01344E-02 7.27521E-07 7.65875E-05 2.14362E-02 1.84420E-06 1.44214E-03 1.43675E-02-2.56054E-05
        6  5.63847E-05 1.98702E-02 2.86993E-05 3.27608E-05 2.12829E-02 6.81547E-05 8.90828E-04 1.42715E-02 1.04270E-04
        9 -5.63829E-05 1.98702E-02-2.86994E-05-3.28110E-05 2.12829E-02-6.81538E-05-8.76276E-04 1.42698E-02-1.04564E-04
       11 -1.18068E-04 2.01344E-02-7.27566E-07-7.65248E-05 2.14362E-02-1.84536E-06-1.43799E-03 1.43662E-02 2.55238E-05



 n o d a l   p r i n t   o u t   f o r   t i m e  s t e p    1209                              ( at time 1.9987898E+00 )

 nodal point  x-disp     y-disp      z-disp      x-vel       y-vel       z-vel      x-accl      y-accl      z-accl      x-coor      y-coor      z-coor
        5 -9.29201E-03 5.75825E-07-1.05444E+00-2.12404E-02 7.03786E-07-1.32758E+00-3.79462E-02 5.50027E-05-1.00788E+00 2.99991E+02 3.00000E+01-1.05444E+00
        6 -9.30967E-03 2.86197E-07-1.05523E+00-2.12850E-02 4.42627E-07-1.32879E+00-3.79756E-02-4.59878E-05-1.00576E+00 2.99991E+02 2.00000E+01-1.05523E+00
        9 -9.30968E-03-2.94610E-07-1.05523E+00-2.12850E-02-4.42922E-07-1.32879E+00-3.79785E-02 5.17059E-05-1.00586E+00 2.99991E+02 1.00000E+01-1.05523E+00
       11 -9.29201E-03-5.83812E-07-1.05444E+00-2.12404E-02-6.69369E-07-1.32758E+00-3.79471E-02-6.50013E-05-1.00787E+00 2.99991E+02-5.83812E-07-1.05444E+00



 n o d a l   p r i n t   o u t   f o r   t i m e  s t e p    1209                              ( at time 1.9987898E+00 )

 nodal point  x-rot      y-rot       z-rot       x-rot vel   y-rot vel   z-rot vel   x-rot acc   y-rot acc   z-rot acc
        5  1.31997E-04 2.23315E-02 7.96110E-07 1.74967E-04 2.27735E-02 1.02831E-07-3.40521E-04 1.25614E-02 1.01103E-05
        6  6.38197E-05 2.20524E-02 3.60166E-05 9.01863E-05 2.26311E-02 7.98535E-05-2.08646E-04 1.25677E-02 1.42887E-04
        9 -6.38161E-05 2.20524E-02-3.60168E-05-9.01431E-05 2.26311E-02-7.98545E-05 1.85581E-04 1.25645E-02-1.42389E-04
       11 -1.31991E-04 2.23315E-02-7.96176E-07-1.74945E-04 2.27736E-02-1.03216E-07 3.58140E-04 1.25532E-02-1.04939E-05



 n o d a l   p r i n t   o u t   f o r   t i m e  s t e p    1270                              ( at time 2.0997219E+00 )

 nodal point  x-disp     y-disp      z-disp      x-vel       y-vel       z-vel      x-accl      y-accl      z-accl      x-coor      y-coor      z-coor
        5 -1.16401E-02 6.42587E-07-1.19366E+00-2.52939E-02 6.16082E-07-1.42930E+00-4.23474E-02-6.93755E-05-1.00835E+00 2.99988E+02 3.00000E+01-1.19366E+00
        6 -1.16619E-02 3.22680E-07-1.19454E+00-2.53288E-02 1.83387E-07-1.42986E+00-4.22456E-02 6.20322E-05-1.00326E+00 2.99988E+02 2.00000E+01-1.19454E+00
        9 -1.16619E-02-3.29517E-07-1.19454E+00-2.53289E-02-2.43507E-07-1.42986E+00-4.22299E-02-4.29095E-05-1.00305E+00 2.99988E+02 1.00000E+01-1.19454E+00
       11 -1.16401E-02-6.48956E-07-1.19366E+00-2.52939E-02-5.72015E-07-1.42930E+00-4.23240E-02 9.16185E-06-1.00829E+00 2.99988E+02-6.48956E-07-1.19366E+00



 n o d a l   p r i n t   o u t   f o r   t i m e  s t e p    1270                              ( at time 2.0997219E+00 )

 nodal point  x-rot      y-rot       z-rot       x-rot vel   y-rot vel   z-rot vel   x-rot acc   y-rot acc   z-rot acc
        5  1.45557E-04 2.46862E-02 9.11993E-07 9.09689E-05 2.37924E-02 2.26439E-06-2.86457E-04 7.64638E-03 8.68025E-06
        6  7.10249E-05 2.43918E-02 4.48662E-05 5.00938E-05 2.36343E-02 9.56292E-05-2.95683E-04 7.73542E-03 1.63103E-04
        9 -7.10218E-05 2.43918E-02-4.48663E-05-5.01553E-05 2.36343E-02-9.56278E-05 3.31909E-04 7.75605E-03-1.63984E-04
       11 -1.45551E-04 2.46862E-02-9.12075E-07-9.09280E-05 2.37924E-02-2.26524E-06 2.67598E-04 7.68841E-03-8.23350E-06



 n o d a l   p r i n t   o u t   f o r   t i m e  s t e p    1330                              ( at time 2.1989994E+00 )

 nodal point  x-disp     y-disp      z-disp      x-vel       y-vel       z-vel      x-accl      y-accl      z-accl      x-coor      y-coor      z-coor
        5 -1.43715E-02 6.84548E-07-1.34063E+00-2.97460E-02 3.34175E-07-1.53049E+00-4.76337E-02 8.30133E-05-1.04331E+00 2.99986E+02 3.00000E+01-1.34063E+00
        6 -1.43968E-02 3.45574E-07-1.34157E+00-2.97836E-02 2.16171E-07-1.53102E+00-4.76945E-02-7.85617E-05-1.04415E+00 2.99986E+02 2.00000E+01-1.34157E+00
        9 -1.43968E-02-3.50779E-07-1.34157E+00-2.97836E-02-2.22516E-07-1.53102E+00-4.77029E-02 9.36360E-05-1.04434E+00 2.99986E+02 1.00000E+01-1.34157E+00
       11 -1.43715E-02-6.89319E-07-1.34063E+00-2.97460E-02-2.81482E-07-1.53049E+00-4.76277E-02-1.26226E-04-1.04325E+00 2.99986E+02-6.89319E-07-1.34063E+00



 n o d a l   p r i n t   o u t   f o r   t i m e  s t e p    1330                              ( at time 2.1989994E+00 )

 nodal point  x-rot      y-rot       z-rot       x-rot vel   y-rot vel   z-rot vel   x-rot acc   y-rot acc   z-rot acc
        5  1.54178E-04 2.70905E-02 1.15634E-06 8.93079E-05 2.46627E-02 2.50332E-06-3.73863E-04 9.74629E-03 1.22880E-05
        6  7.52474E-05 2.67806E-02 5.51875E-05 4.86990E-05 2.45045E-02 1.11962E-04 5.28943E-05 9.73686E-03 1.71517E-04
        9 -7.52441E-05 2.67806E-02-5.51877E-05-4.87388E-05 2.45045E-02-1.11961E-04-5.06198E-05 9.71957E-03-1.71592E-04
       11 -1.54172E-04 2.70905E-02-1.15640E-06-8.93359E-05 2.46627E-02-2.50244E-06 4.35261E-04 9.70617E-03-1.39103E-05



 n o d a l   p r i n t   o u t   f o r   t i m e  s t e p    1391                              ( at time 2.2999316E+00 )

 nodal point  x-disp     y-disp      z-disp      x-vel       y-vel       z-vel      x-accl      y-accl      z-accl      x-coor      y-coor      z-coor
        5 -1.76326E-02 7.15131E-07-1.50062E+00-3.49035E-02 3.31238E-07-1.63903E+00-5.45081E-02 1.03455E-06-1.10337E+00 2.99982E+02 3.00000E+01-1.50062E+00
        6 -1.76615E-02 3.63429E-07-1.50160E+00-3.49388E-02 1.52827E-07-1.63934E+00-5.45292E-02 1.44027E-05-1.10378E+00 2.99982E+02 2.00000E+01-1.50160E+00
        9 -1.76615E-02-3.64667E-07-1.50160E+00-3.49388E-02-9.23405E-08-1.63934E+00-5.45140E-02-4.85064E-06-1.10379E+00 2.99982E+02 1.00000E+01-1.50160E+00
       11 -1.76326E-02-7.16299E-07-1.50063E+00-3.49035E-02-2.02676E-07-1.63903E+00-5.44736E-02-2.62334E-05-1.10348E+00 2.99982E+02-7.16299E-07-1.50063E+00



 n o d a l   p r i n t   o u t   f o r   t i m e  s t e p    1391                              ( at time 2.2999316E+00 )

 nodal point  x-rot      y-rot       z-rot       x-rot vel   y-rot vel   z-rot vel   x-rot acc   y-rot acc   z-rot acc
        5  1.62112E-04 2.96403E-02 1.45377E-06 6.39255E-05 2.59256E-02 3.52754E-06-1.55002E-04 1.46994E-02 8.23067E-06
        6  7.92045E-05 2.93148E-02 6.74395E-05 3.18126E-05 2.57708E-02 1.30750E-04-1.82444E-05 1.45334E-02 1.90826E-04
        9 -7.92036E-05 2.93148E-02-6.74396E-05-3.17811E-05 2.57708E-02-1.30751E-04-4.79392E-06 1.45285E-02-1.90165E-04
       11 -1.62106E-04 2.96403E-02-1.45380E-06-6.38902E-05 2.59256E-02-3.52843E-06 1.30703E-04 1.46887E-02-7.52065E-06



 n o d a l   p r i n t   o u t   f o r   t i m e  s t e p    1451                              ( at time 2.3992090E+00 )

 nodal point  x-disp     y-disp      z-disp      x-vel       y-vel       z-vel      x-accl      y-accl      z-accl      x-coor      y-coor      z-coor
        5 -2.13811E-02 7.57727E-07-1.66891E+00-4.06158E-02 6.18764E-07-1.74967E+00-6.03731E-02 4.47329E-05-1.12020E+00 2.99979E+02 3.00000E+01-1.66891E+00
        6 -2.14144E-02 3.88357E-07-1.66994E+00-4.06737E-02 3.26559E-07-1.75058E+00-6.07552E-02 1.99996E-05-1.13019E+00 2.99979E+02 2.00000E+01-1.66994E+00
        9 -2.14144E-02-3.85712E-07-1.66994E+00-4.06737E-02-3.39726E-07-1.75058E+00-6.07680E-02-4.79280E-05-1.13017E+00 2.99979E+02 1.00000E+01-1.66994E+00
       11 -2.13811E-02-7.55429E-07-1.66891E+00-4.06158E-02-5.95868E-07-1.74967E+00-6.04104E-02-2.42351E-05-1.12034E+00 2.99979E+02-7.55429E-07-1.66891E+00



 n o d a l   p r i n t   o u t   f o r   t i m e  s t e p    1451                              ( at time 2.3992090E+00 )

 nodal point  x-rot      y-rot       z-rot       x-rot vel   y-rot vel   z-rot vel   x-rot acc   y-rot acc   z-rot acc
        5  1.71612E-04 3.22905E-02 1.72790E-06 1.50228E-04 2.74462E-02 1.26680E-06 1.07980E-03 1.47627E-02-3.03433E-05
        6  8.38829E-05 3.19492E-02 8.13565E-05 7.05212E-05 2.72867E-02 1.49330E-04 5.67659E-04 1.48731E-02 1.90881E-04
        9 -8.38814E-05 3.19492E-02-8.13566E-05-7.05347E-05 2.72867E-02-1.49330E-04-6.01587E-04 1.48691E-02-1.89804E-04
       11 -1.71609E-04 3.22905E-02-1.72785E-06-1.50170E-04 2.74462E-02-1.26857E-06-1.12362E-03 1.47546E-02 3.17360E-05



 n o d a l   p r i n t   o u t   f o r   t i m e  s t e p    1511                              ( at time 2.4984865E+00 )

 nodal point  x-disp     y-disp      z-disp      x-vel       y-vel       z-vel      x-accl      y-accl      z-accl      x-coor      y-coor      z-coor
        5 -2.57259E-02 8.31311E-07-1.84823E+00-4.69030E-02 9.47859E-07-1.86087E+00-6.63882E-02-1.65443E-04-1.11898E+00 2.99974E+02 3.00000E+01-1.84823E+00
        6 -2.57662E-02 4.30814E-07-1.84937E+00-4.69781E-02 4.13702E-07-1.86207E+00-6.62370E-02 1.00856E-04-1.11353E+00 2.99974E+02 2.00000E+01-1.84937E+00
        9 -2.57662E-02-4.31466E-07-1.84937E+00-4.69781E-02-3.81122E-07-1.86207E+00-6.62246E-02-1.31658E-04-1.11361E+00 2.99974E+02 1.00000E+01-1.84937E+00
       11 -2.57259E-02-8.32336E-07-1.84823E+00-4.69030E-02-9.36985E-07-1.86087E+00-6.63433E-02 1.82241E-04-1.11891E+00 2.99974E+02-8.32336E-07-1.84823E+00



 n o d a l   p r i n t   o u t   f o r   t i m e  s t e p    1511                              ( at time 2.4984865E+00 )

 nodal point  x-rot      y-rot       z-rot       x-rot vel   y-rot vel   z-rot vel   x-rot acc   y-rot acc   z-rot acc
        5  1.89933E-04 3.50852E-02 1.76291E-06 1.85248E-04 2.87774E-02 5.19899E-07-5.56335E-04 1.13288E-02 2.24324E-05
        6  9.32486E-05 3.47281E-02 9.71889E-05 9.80542E-05 2.86154E-02 1.70298E-04-3.42404E-04 1.12691E-02 2.43887E-04
        9 -9.32470E-05 3.47281E-02-9.71890E-05-9.80579E-05 2.86154E-02-1.70298E-04 3.44464E-04 1.12731E-02-2.43956E-04
       11 -1.89931E-04 3.50852E-02-1.76281E-06-1.85289E-04 2.87773E-02-5.18438E-07 5.94996E-04 1.13368E-02-2.37686E-05



 n o d a l   p r i n t   o u t   f o r   t i m e  s t e p    1572                              ( at time 2.5994185E+00 )

 nodal point  x-disp     y-disp      z-disp      x-vel       y-vel       z-vel      x-accl      y-accl      z-accl      x-coor      y-coor      z-coor
        5 -3.08115E-02 9.02818E-07-2.04180E+00-5.38400E-02 5.23849E-07-1.97254E+00-7.12343E-02 6.14585E-05-1.09279E+00 2.99969E+02 3.00000E+01-2.04180E+00
        6 -3.08588E-02 4.72053E-07-2.04304E+00-5.39061E-02 3.66935E-07-1.97330E+00-7.13951E-02-1.04475E-06-1.09390E+00 2.99969E+02 2.00000E+01-2.04304E+00
        9 -3.08588E-02-4.72998E-07-2.04304E+00-5.39060E-02-3.44264E-07-1.97330E+00-7.14493E-02-1.44027E-05-1.09376E+00 2.99969E+02 1.00000E+01-2.04304E+00
       11 -3.08115E-02-9.04241E-07-2.04180E+00-5.38399E-02-5.83739E-07-1.97254E+00-7.13189E-02-6.88315E-05-1.09291E+00 2.99969E+02-9.04241E-07-2.04180E+00



 n o d a l   p r i n t   o u t   f o r   t i m e  s t e p    1572                              ( at time 2.5994185E+00 )

 nodal point  x-rot      y-rot       z-rot       x-rot vel   y-rot vel   z-rot vel   x-rot acc   y-rot acc   z-rot acc
        5  2.05182E-04 3.80430E-02 1.95293E-06 1.30701E-04 2.97382E-02 2.74381E-06-2.05241E-04 7.72336E-03 1.00270E-05
        6  1.01245E-04 3.76690E-02 1.15687E-04 7.03100E-05 2.95666E-02 1.95910E-04-1.80521E-04 7.66798E-03 2.62910E-04
        9 -1.01244E-04 3.76690E-02-1.15687E-04-7.02942E-05 2.95666E-02-1.95910E-04 1.98467E-04 7.66130E-03-2.63555E-04
       11 -2.05179E-04 3.80430E-02-1.95287E-06-1.30596E-04 2.97383E-02-2.74768E-06 1.69252E-04 7.71265E-03-8.67639E-06



 n o d a l   p r i n t   o u t   f o r   t i m e  s t e p    1632                              ( at time 2.6986959E+00 )

 nodal point  x-disp     y-disp      z-disp      x-vel       y-vel       z-vel      x-accl      y-accl      z-accl      x-coor      y-coor      z-coor
        5 -3.65236E-02 9.58970E-07-2.24311E+00-6.12180E-02 3.18025E-07-2.08136E+00-7.76400E-02 1.65281E-04-1.10414E+00 2.99963E+02 3.00000E+01-2.24311E+00
        6 -3.65778E-02 5.03231E-07-2.24443E+00-6.12896E-02 3.88297E-07-2.08211E+00-7.77107E-02-1.32478E-04-1.10152E+00 2.99963E+02 2.00000E+01-2.24443E+00
        9 -3.65778E-02-5.08847E-07-2.24443E+00-6.12896E-02-4.70117E-07-2.08211E+00-7.77052E-02 1.18691E-04-1.10158E+00 2.99963E+02 1.00000E+01-2.24443E+00
       11 -3.65236E-02-9.65520E-07-2.24311E+00-6.12180E-02-3.32986E-07-2.08136E+00-7.76367E-02-2.01538E-04-1.10421E+00 2.99963E+02-9.65520E-07-2.24311E+00



 n o d a l   p r i n t   o u t   f o r   t i m e  s t e p    1632                              ( at time 2.6986959E+00 )

 nodal point  x-rot      y-rot       z-rot       x-rot vel   y-rot vel   z-rot vel   x-rot acc   y-rot acc   z-rot acc
        5  2.18629E-04 4.10309E-02 2.21833E-06 1.34155E-04 3.04199E-02 2.83039E-06-7.17744E-04 6.55596E-03 3.10919E-05
        6  1.08486E-04 4.06397E-02 1.36449E-04 7.06035E-05 3.02487E-02 2.22481E-04-1.68175E-04 6.61468E-03 2.86525E-04
        9 -1.08484E-04 4.06397E-02-1.36449E-04-7.05326E-05 3.02487E-02-2.22483E-04 1.25084E-04 6.60924E-03-2.84771E-04
       11 -2.18628E-04 4.10309E-02-2.21813E-06-1.34186E-04 3.04200E-02-2.82917E-06 7.19757E-04 6.54450E-03-3.11694E-05



 n o d a l   p r i n t   o u t   f o r   t i m e  s t e p    1693                              ( at time 2.7996279E+00 )

 nodal point  x-disp     y-disp      z-disp      x-vel       y-vel       z-vel      x-accl      y-accl      z-accl      x-coor      y-coor      z-coor
        5 -4.31194E-02 9.90449E-07-2.45899E+00-6.94928E-02 1.67560E-07-2.19534E+00-8.63907E-02-1.01325E-04-1.15274E+00 2.99957E+02 3.00000E+01-2.45899E+00
        6 -4.31798E-02 5.19882E-07-2.46035E+00-6.95405E-02 1.03931E-07-2.19543E+00-8.61872E-02 4.69952E-05-1.14788E+00 2.99957E+02 2.00000E+01-2.46035E+00
        9 -4.31798E-02-5.25944E-07-2.46035E+00-6.95405E-02-5.78604E-08-2.19543E+00-8.62015E-02-2.32831E-05-1.14799E+00 2.99957E+02 1.00000E+01-2.46035E+00
       11 -4.31194E-02-9.97471E-07-2.45899E+00-6.94927E-02 3.87482E-08-2.19534E+00-8.64000E-02-1.14177E-05-1.15300E+00 2.99957E+02-9.97471E-07-2.45899E+00



 n o d a l   p r i n t   o u t   f o r   t i m e  s t e p    1693                              ( at time 2.7996279E+00 )

 nodal point  x-rot      y-rot       z-rot       x-rot vel   y-rot vel   z-rot vel   x-rot acc   y-rot acc   z-rot acc
        5  2.27702E-04 4.41366E-02 2.70064E-06 4.81781E-05 3.11614E-02 6.67426E-06-4.62218E-04 9.93842E-03 2.33975E-05
        6  1.14077E-04 4.37281E-02 1.60455E-04 3.15944E-05 3.09856E-02 2.53477E-04-2.98167E-04 9.77316E-03 3.14704E-04
        9 -1.14074E-04 4.37281E-02-1.60455E-04-3.15753E-05 3.09856E-02-2.53477E-04 2.92161E-04 9.72960E-03-3.14427E-04
       11 -2.27699E-04 4.41366E-02-2.70055E-06-4.81741E-05 3.11615E-02-6.67436E-06 4.57067E-04 9.85054E-03-2.31443E-05



 n o d a l   p r i n t   o u t   f o r   t i m e  s t e p    1753                              ( at time 2.8989052E+00 )

 nodal point  x-disp     y-disp      z-disp      x-vel       y-vel       z-vel      x-accl      y-accl      z-accl      x-coor      y-coor      z-coor
        5 -5.04672E-02 1.00727E-06-2.68280E+00-7.85398E-02 5.70711E-08-2.31244E+00-9.59780E-02 1.36758E-04-1.20660E+00 2.99950E+02 3.00000E+01-2.68280E+00
        6 -5.05325E-02 5.28973E-07-2.68418E+00-7.86011E-02 8.26621E-08-2.31278E+00-9.63675E-02-5.45510E-05-1.21350E+00 2.99949E+02 2.00000E+01-2.68418E+00
        9 -5.05325E-02-5.26536E-07-2.68418E+00-7.86011E-02-5.44958E-08-2.31278E+00-9.63902E-02 4.30214E-05-1.21355E+00 2.99949E+02 1.00000E+01-2.68418E+00
       11 -5.04672E-02-1.00588E-06-2.68280E+00-7.85397E-02-7.40299E-08-2.31244E+00-9.60291E-02-1.15975E-04-1.20656E+00 2.99950E+02-1.00588E-06-2.68280E+00



 n o d a l   p r i n t   o u t   f o r   t i m e  s t e p    1753                              ( at time 2.8989052E+00 )

 nodal point  x-rot      y-rot       z-rot       x-rot vel   y-rot vel   z-rot vel   x-rot acc   y-rot acc   z-rot acc
        5  2.33101E-04 4.72807E-02 3.35118E-06 8.37478E-05 3.22028E-02 5.38596E-06 4.37620E-04 1.19155E-02-1.63405E-05
        6  1.17389E-04 4.68544E-02 1.87154E-04 5.26837E-05 3.20239E-02 2.83404E-04 3.90594E-04 1.19967E-02 3.03369E-04
        9 -1.17386E-04 4.68544E-02-1.87154E-04-5.26820E-05 3.20239E-02-2.83404E-04-4.43775E-04 1.20170E-02-3.00893E-04
       11 -2.33094E-04 4.72807E-02-3.35122E-06-8.37312E-05 3.22028E-02-5.38657E-06-4.45637E-04 1.19556E-02 1.67007E-05



 n o d a l   p r i n t   o u t   f o r   t i m e  s t e p    1814                              ( at time 2.9998371E+00 )

 nodal point  x-disp     y-disp      z-disp      x-vel       y-vel       z-vel      x-accl      y-accl      z-accl      x-coor      y-coor      z-coor
        5 -5.89123E-02 1.03087E-06-2.92260E+00-8.88309E-02 3.19738E-07-2.43827E+00-1.07514E-01 1.61813E-04-1.27822E+00 2.99941E+02 3.00000E+01-2.92260E+00
        6 -5.89846E-02 5.42563E-07-2.92401E+00-8.88998E-02 2.52010E-07-2.43866E+00-1.07579E-01-1.02983E-04-1.27720E+00 2.99941E+02 2.00000E+01-2.92401E+00
        9 -5.89846E-02-5.34456E-07-2.92401E+00-8.88998E-02-7.04857E-08-2.43866E+00-1.07604E-01 1.07013E-04-1.27696E+00 2.99941E+02 1.00000E+01-2.92401E+00
       11 -5.89123E-02-1.02338E-06-2.92260E+00-8.88308E-02-2.78944E-07-2.43827E+00-1.07556E-01-1.56256E-04-1.27834E+00 2.99941E+02-1.02338E-06-2.92260E+00



 n o d a l   p r i n t   o u t   f o r   t i m e  s t e p    1814                              ( at time 2.9998371E+00 )

 nodal point  x-rot      y-rot       z-rot       x-rot vel   y-rot vel   z-rot vel   x-rot acc   y-rot acc   z-rot acc
        5  2.42829E-04 5.06013E-02 3.85949E-06 9.33970E-05 3.36676E-02 5.45432E-06-9.75969E-05 1.51482E-02 1.02172E-05
        6  1.23841E-04 5.01571E-02 2.17408E-04 6.16131E-05 3.34860E-02 3.16561E-04-1.06768E-04 1.50473E-02 3.49355E-04
        9 -1.23838E-04 5.01571E-02-2.17408E-04-6.16244E-05 3.34860E-02-3.16560E-04 1.05896E-04 1.50598E-02-3.49296E-04
       11 -2.42825E-04 5.06014E-02-3.85937E-06-9.33811E-05 3.36678E-02-5.45508E-06 2.58570E-05 1.51715E-02-6.64421E-06



 n o d a l   p r i n t   o u t   f o r   t i m e  s t e p    1874                              ( at time 3.0991143E+00 )

 nodal point  x-disp     y-disp      z-disp      x-vel       y-vel       z-vel      x-accl      y-accl      z-accl      x-coor      y-coor      z-coor
        5 -6.82865E-02 1.06690E-06-3.17109E+00-9.99904E-02 1.06977E-07-2.56605E+00-1.16953E-01 3.06516E-04-1.29852E+00 2.99932E+02 3.00000E+01-3.17109E+00
        6 -6.83663E-02 5.62608E-07-3.17256E+00-1.00079E-01 2.56640E-07-2.56673E+00-1.17483E-01-9.76471E-05-1.30487E+00 2.99932E+02 2.00000E+01-3.17256E+00
        9 -6.83663E-02-5.49406E-07-3.17256E+00-1.00080E-01-3.35219E-07-2.56673E+00-1.17505E-01 1.11154E-04-1.30508E+00 2.99932E+02 1.00000E+01-3.17256E+00
       11 -6.82865E-02-1.05455E-06-3.17109E+00-9.99904E-02-9.67332E-08-2.56605E+00-1.16991E-01-3.44376E-04-1.29869E+00 2.99932E+02-1.05455E-06-3.17109E+00



 n o d a l   p r i n t   o u t   f o r   t i m e  s t e p    1874                              ( at time 3.0991143E+00 )

 nodal point  x-rot      y-rot       z-rot       x-rot vel   y-rot vel   z-rot vel   x-rot acc   y-rot acc   z-rot acc
        5  2.53479E-04 5.40234E-02 4.35807E-06 1.35776E-04 3.52382E-02 3.80604E-06 4.58725E-04 1.48220E-02-1.90404E-05
        6  1.30875E-04 5.35602E-02 2.50550E-04 8.67240E-05 3.50447E-02 3.50550E-04 3.54619E-04 1.47810E-02 3.48801E-04
        9 -1.30870E-04 5.35602E-02-2.50550E-04-8.67356E-05 3.50448E-02-3.50549E-04-3.63586E-04 1.47294E-02-3.48352E-04
       11 -2.53477E-04 5.40234E-02-4.35789E-06-1.35899E-04 3.52384E-02-3.79945E-06-4.16557E-04 1.47204E-02 1.68290E-05



 n o d a l   p r i n t   o u t   f o r   t i m e  s t e p    1934                              ( at time 3.1983915E+00 )

 nodal point  x-disp     y-disp      z-disp      x-vel       y-vel       z-vel      x-accl      y-accl      z-accl      x-coor      y-coor      z-coor
        5 -7.88175E-02 1.11632E-06-3.43238E+00-1.12122E-01 6.43846E-07-2.69572E+00-1.27019E-01-1.05675E-04-1.31252E+00 2.99921E+02 3.00000E+01-3.43238E+00
        6 -7.89076E-02 5.89245E-07-3.43393E+00-1.12236E-01 2.82755E-07-2.69670E+00-1.27047E-01 1.66190E-04-1.31142E+00 2.99921E+02 2.00000E+01-3.43393E+00
        9 -7.89076E-02-5.81618E-07-3.43393E+00-1.12236E-01-3.41948E-07-2.69670E+00-1.27105E-01-2.14883E-04-1.31138E+00 2.99921E+02 1.00000E+01-3.43393E+00
       11 -7.88175E-02-1.10961E-06-3.43238E+00-1.12121E-01-7.58820E-07-2.69572E+00-1.27178E-01 2.30808E-04-1.31252E+00 2.99921E+02-1.10961E-06-3.43238E+00



 n o d a l   p r i n t   o u t   f o r   t i m e  s t e p    1934                              ( at time 3.1983915E+00 )

 nodal point  x-rot      y-rot       z-rot       x-rot vel   y-rot vel   z-rot vel   x-rot acc   y-rot acc   z-rot acc
        5  2.69771E-04 5.76027E-02 4.61327E-06 1.77520E-04 3.68576E-02 2.13869E-06 4.57375E-04 1.50846E-02-2.02381E-05
        6  1.41086E-04 5.71202E-02 2.87153E-04 1.16515E-04 3.66546E-02 3.86793E-04 5.57922E-04 1.47817E-02 3.64383E-04
        9 -1.41084E-04 5.71202E-02-2.87153E-04-1.16476E-04 3.66546E-02-3.86795E-04-5.37576E-04 1.47824E-02-3.65579E-04
       11 -2.69766E-04 5.76027E-02-4.61325E-06-1.77675E-04 3.68576E-02-2.12968E-06-4.49748E-04 1.50884E-02 1.98026E-05



 n o d a l   p r i n t   o u t   f o r   t i m e  s t e p    1995                              ( at time 3.2993232E+00 )

 nodal point  x-disp     y-disp      z-disp      x-vel       y-vel       z-vel      x-accl      y-accl      z-accl      x-coor      y-coor      z-coor
        5 -9.08050E-02 1.18361E-06-3.71121E+00-1.25330E-01 7.17492E-07-2.82684E+00-1.34562E-01-1.19983E-05-1.28789E+00 2.99909E+02 3.00000E+01-3.71121E+00
        6 -9.09072E-02 6.26137E-07-3.71286E+00-1.25455E-01 2.18054E-07-2.82783E+00-1.34709E-01 1.66713E-04-1.28870E+00 2.99909E+02 2.00000E+01-3.71286E+00
        9 -9.09072E-02-6.25295E-07-3.71286E+00-1.25455E-01-2.93978E-07-2.82783E+00-1.34755E-01-1.82197E-04-1.28879E+00 2.99909E+02 1.00000E+01-3.71286E+00
       11 -9.08050E-02-1.18388E-06-3.71121E+00-1.25330E-01-8.54068E-07-2.82684E+00-1.34642E-01 1.03273E-04-1.28771E+00 2.99909E+02-1.18388E-06-3.71121E+00



 n o d a l   p r i n t   o u t   f o r   t i m e  s t e p    1995                              ( at time 3.2993232E+00 )

 nodal point  x-rot      y-rot       z-rot       x-rot vel   y-rot vel   z-rot vel   x-rot acc   y-rot acc   z-rot acc
        5  2.88175E-04 6.13990E-02 4.83034E-06 1.87913E-04 3.82869E-02 2.08688E-06 1.09413E-04 1.11207E-02-2.16300E-06
        6  1.53015E-04 6.08955E-02 3.28286E-04 1.22325E-04 3.80744E-02 4.27972E-04 1.87339E-04 1.09114E-02 4.16044E-04
        9 -1.53013E-04 6.08955E-02-3.28286E-04-1.22321E-04 3.80745E-02-4.27973E-04-1.71781E-04 1.09181E-02-4.16994E-04
       11 -2.88171E-04 6.13990E-02-4.83020E-06-1.88061E-04 3.82870E-02-2.07784E-06-5.65937E-05 1.11383E-02-1.04802E-06



 n o d a l   p r i n t   o u t   f o r   t i m e  s t e p    2055                              ( at time 3.3986002E+00 )

 nodal point  x-disp     y-disp      z-disp      x-vel       y-vel       z-vel      x-accl      y-accl      z-accl      x-coor      y-coor      z-coor
        5 -1.03934E-01 1.24937E-06-3.99824E+00-1.39055E-01 8.59001E-07-2.95326E+00-1.42415E-01-1.06191E-04-1.26585E+00 2.99896E+02 3.00000E+01-3.99824E+00
        6 -1.04049E-01 6.62922E-07-3.99999E+00-1.39192E-01 2.38181E-07-2.95428E+00-1.42355E-01 1.16229E-04-1.26508E+00 2.99896E+02 2.00000E+01-3.99999E+00
        9 -1.04049E-01-6.69561E-07-3.99999E+00-1.39192E-01-4.13997E-07-2.95428E+00-1.42276E-01-1.32161E-04-1.26513E+00 2.99896E+02 1.00000E+01-3.99999E+00
       11 -1.03934E-01-1.25746E-06-3.99825E+00-1.39055E-01-1.00212E-06-2.95326E+00-1.42339E-01 9.61773E-05-1.26572E+00 2.99896E+02-1.25746E-06-3.99825E+00



 n o d a l   p r i n t   o u t   f o r   t i m e  s t e p    2055                              ( at time 3.3986002E+00 )

 nodal point  x-rot      y-rot       z-rot       x-rot vel   y-rot vel   z-rot vel   x-rot acc   y-rot acc   z-rot acc
        5  3.07437E-04 6.52565E-02 5.02327E-06 1.95705E-04 3.93769E-02 2.05642E-06 3.27146E-05 9.35116E-03 1.83476E-06
        6  1.65887E-04 6.47313E-02 3.72924E-04 1.32628E-04 3.91565E-02 4.71356E-04-2.18622E-05 9.27215E-03 4.61402E-04
        9 -1.65884E-04 6.47313E-02-3.72924E-04-1.32531E-04 3.91566E-02-4.71362E-04-3.25485E-05 9.29727E-03-4.57899E-04
       11 -3.07432E-04 6.52565E-02-5.02318E-06-1.95802E-04 3.93769E-02-2.05005E-06-3.85294E-05 9.40236E-03-1.48120E-06



 n o d a l   p r i n t   o u t   f o r   t i m e  s t e p    2116                              ( at time 3.4995318E+00 )

 nodal point  x-disp     y-disp      z-disp      x-vel       y-vel       z-vel      x-accl      y-accl      z-accl      x-coor      y-coor      z-coor
        5 -1.18717E-01 1.31599E-06-4.30283E+00-1.53758E-01 8.06810E-07-3.07971E+00-1.49056E-01-2.40666E-06-1.23824E+00 2.99881E+02 3.00000E+01-4.30283E+00
        6 -1.18846E-01 7.01362E-07-4.30467E+00-1.53893E-01 3.81969E-07-3.08057E+00-1.48947E-01-2.91411E-05-1.23609E+00 2.99881E+02 2.00000E+01-4.30467E+00
        9 -1.18846E-01-7.12639E-07-4.30467E+00-1.53893E-01-2.57800E-07-3.08057E+00-1.48966E-01-3.24620E-06-1.23586E+00 2.99881E+02 1.00000E+01-4.30467E+00
       11 -1.18717E-01-1.32920E-06-4.30283E+00-1.53758E-01-7.59172E-07-3.07971E+00-1.49159E-01 1.66274E-04-1.23827E+00 2.99881E+02-1.32920E-06-4.30283E+00



 n o d a l   p r i n t   o u t   f o r   t i m e  s t e p    2116                              ( at time 3.4995318E+00 )

 nodal point  x-rot      y-rot       z-rot       x-rot vel   y-rot vel   z-rot vel   x-rot acc   y-rot acc   z-rot acc
        5  3.26559E-04 6.92789E-02 5.29331E-06 1.81242E-04 4.02690E-02 3.40667E-06 8.72928E-05 8.32692E-03-2.30513E-06
        6  1.79320E-04 6.87309E-02 4.22936E-04 1.31241E-04 4.00360E-02 5.19592E-04-1.51280E-04 8.35458E-03 5.04583E-04
        9 -1.79317E-04 6.87308E-02-4.22936E-04-1.31288E-04 4.00360E-02-5.19589E-04 2.02025E-04 8.36289E-03-5.08045E-04
       11 -3.26551E-04 6.92789E-02-5.29343E-06-1.81298E-04 4.02691E-02-3.40260E-06-1.23315E-04 8.33456E-03 4.76947E-06



 n o d a l   p r i n t   o u t   f o r   t i m e  s t e p    2176                              ( at time 3.5988087E+00 )

 nodal point  x-disp     y-disp      z-disp      x-vel       y-vel       z-vel      x-accl      y-accl      z-accl      x-coor      y-coor      z-coor
        5 -1.34741E-01 1.38081E-06-4.61475E+00-1.68912E-01 5.05049E-08-3.20182E+00-1.56043E-01 4.93902E-04-1.22171E+00 2.99865E+02 3.00000E+01-4.61475E+00
        6 -1.34883E-01 7.40520E-07-4.61667E+00-1.69046E-01 7.99688E-07-3.20256E+00-1.56239E-01-5.30100E-04-1.22062E+00 2.99865E+02 2.00000E+01-4.61667E+00
        9 -1.34883E-01-7.48934E-07-4.61667E+00-1.69046E-01-7.18241E-07-3.20256E+00-1.56297E-01 4.63609E-04-1.22071E+00 2.99865E+02 1.00000E+01-4.61667E+00
       11 -1.34741E-01-1.39190E-06-4.61475E+00-1.68911E-01-3.36652E-07-3.20182E+00-1.56157E-01-3.16644E-04-1.22162E+00 2.99865E+02-1.39190E-06-4.61475E+00



 n o d a l   p r i n t   o u t   f o r   t i m e  s t e p    2176                              ( at time 3.5988087E+00 )

 nodal point  x-rot      y-rot       z-rot       x-rot vel   y-rot vel   z-rot vel   x-rot acc   y-rot acc   z-rot acc
        5  3.44370E-04 7.33085E-02 5.65856E-06 1.76618E-04 4.08428E-02 3.99237E-06-3.36862E-04 4.87430E-03 2.66674E-05
        6  1.91966E-04 7.27371E-02 4.77075E-04 1.28804E-04 4.06023E-02 5.70401E-04-1.27949E-04 4.77343E-03 5.36103E-04
        9 -1.91969E-04 7.27371E-02-4.77074E-04-1.28787E-04 4.06022E-02-5.70403E-04 1.34970E-04 4.77716E-03-5.36619E-04
       11 -3.44363E-04 7.33085E-02-5.65855E-06-1.76841E-04 4.08428E-02-3.97601E-06 3.69729E-04 4.88461E-03-2.90556E-05



 n o d a l   p r i n t   o u t   f o r   t i m e  s t e p    2237                              ( at time 3.6997402E+00 )

 nodal point  x-disp     y-disp      z-disp      x-vel       y-vel       z-vel      x-accl      y-accl      z-accl      x-coor      y-coor      z-coor
        5 -1.52615E-01 1.41554E-06-4.94427E+00-1.85175E-01-1.13832E-08-3.32604E+00-1.65905E-01 1.16082E-04-1.23968E+00 2.99847E+02 3.00000E+01-4.94427E+00
        6 -1.52770E-01 7.59525E-07-4.94625E+00-1.85284E-01 5.79673E-08-3.32636E+00-1.65537E-01-2.91785E-05-1.23505E+00 2.99847E+02 2.00000E+01-4.94625E+00
        9 -1.52770E-01-7.73991E-07-4.94625E+00-1.85284E-01-2.16514E-08-3.32636E+00-1.65548E-01-1.01863E-05-1.23490E+00 2.99847E+02 1.00000E+01-4.94625E+00
       11 -1.52615E-01-1.43240E-06-4.94427E+00-1.85175E-01-1.24045E-07-3.32604E+00-1.65927E-01-3.18416E-05-1.23973E+00 2.99847E+02-1.43240E-06-4.94427E+00



 n o d a l   p r i n t   o u t   f o r   t i m e  s t e p    2237                              ( at time 3.6997402E+00 )

 nodal point  x-rot      y-rot       z-rot       x-rot vel   y-rot vel   z-rot vel   x-rot acc   y-rot acc   z-rot acc
        5  3.60093E-04 7.74525E-02 6.22767E-06 1.27709E-04 4.12643E-02 7.85199E-06-8.32931E-04 6.36023E-03 6.68677E-05
        6  2.04138E-04 7.68565E-02 5.37488E-04 1.07860E-04 4.10197E-02 6.26703E-04-3.42249E-04 6.18446E-03 5.84532E-04
        9 -2.04142E-04 7.68565E-02-5.37488E-04-1.07782E-04 4.10197E-02-6.26710E-04 3.90487E-04 6.18475E-03-5.88217E-04
       11 -3.60089E-04 7.74525E-02-6.22755E-06-1.27744E-04 4.12642E-02-7.84917E-06 7.95029E-04 6.35833E-03-6.39613E-05



 n o d a l   p r i n t   o u t   f o r   t i m e  s t e p    2297                              ( at time 3.7990169E+00 )

 nodal point  x-disp     y-disp      z-disp      x-vel       y-vel       z-vel      x-accl      y-accl      z-accl      x-coor      y-coor      z-coor
        5 -1.71852E-01 1.41970E-06-5.28076E+00-2.02277E-01-1.10224E-07-3.45131E+00-1.78012E-01-1.05080E-04-1.27469E+00 2.99828E+02 3.00000E+01-5.28076E+00
        6 -1.72016E-01 7.62114E-07-5.28275E+00-2.02371E-01-2.77249E-08-3.45139E+00-1.78162E-01 9.63785E-05-1.27690E+00 2.99828E+02 2.00000E+01-5.28275E+00
        9 -1.72016E-01-7.74575E-07-5.28275E+00-2.02371E-01-9.84534E-08-3.45139E+00-1.78139E-01-1.00819E-04-1.27720E+00 2.99828E+02 1.00000E+01-5.28275E+00
       11 -1.71852E-01-1.43470E-06-5.28076E+00-2.02277E-01-7.53877E-09-3.45131E+00-1.77985E-01 1.30199E-04-1.27448E+00 2.99828E+02-1.43470E-06-5.28076E+00



 n o d a l   p r i n t   o u t   f o r   t i m e  s t e p    2297                              ( at time 3.7990169E+00 )

 nodal point  x-rot      y-rot       z-rot       x-rot vel   y-rot vel   z-rot vel   x-rot acc   y-rot acc   z-rot acc
        5  3.70475E-04 8.15776E-02 7.19843E-06 1.05884E-04 4.18654E-02 9.80826E-06 2.63612E-04 8.78914E-03-1.70293E-05
        6  2.14221E-04 8.09567E-02 6.02595E-04 9.88464E-05 4.16101E-02 6.84137E-04 2.03769E-04 8.79789E-03 5.69204E-04
        9 -2.14224E-04 8.09567E-02-6.02595E-04-9.87670E-05 4.16100E-02-6.84145E-04-2.61678E-04 8.80257E-03-5.64561E-04
       11 -3.70469E-04 8.15776E-02-7.19846E-06-1.05830E-04 4.18654E-02-9.81240E-06-2.17722E-04 8.80556E-03 1.33145E-05



 n o d a l   p r i n t   o u t   f o r   t i m e  s t e p    2358                              ( at time 3.8999482E+00 )

 nodal point  x-disp     y-disp      z-disp      x-vel       y-vel       z-vel      x-accl      y-accl      z-accl      x-coor      y-coor      z-coor
        5 -1.93212E-01 1.42567E-06-5.63579E+00-2.20896E-01 2.47506E-07-3.58228E+00-1.91649E-01-1.96072E-04-1.32132E+00 2.99807E+02 3.00000E+01-5.63579E+00
        6 -1.93387E-01 7.61298E-07-5.63781E+00-2.21014E-01-1.98218E-08-3.58262E+00-1.91690E-01 2.85889E-04-1.32127E+00 2.99807E+02 2.00000E+01-5.63781E+00
        9 -1.93387E-01-7.95764E-07-5.63781E+00-2.21014E-01-3.11573E-07-3.58262E+00-1.91744E-01-1.93354E-04-1.32117E+00 2.99807E+02 1.00000E+01-5.63781E+00
       11 -1.93212E-01-1.46273E-06-5.63579E+00-2.20896E-01-4.99591E-07-3.58228E+00-1.91776E-01 2.65223E-04-1.32159E+00 2.99807E+02-1.46273E-06-5.63579E+00



 n o d a l   p r i n t   o u t   f o r   t i m e  s t e p    2358                              ( at time 3.8999482E+00 )

 nodal point  x-rot      y-rot       z-rot       x-rot vel   y-rot vel   z-rot vel   x-rot acc   y-rot acc   z-rot acc
        5  3.83223E-04 8.58407E-02 8.03722E-06 1.42081E-04 4.26059E-02 7.18079E-06-2.50731E-04 6.33179E-03 2.44695E-05
        6  2.26154E-04 8.51939E-02 6.74561E-04 1.30342E-04 4.23480E-02 7.41970E-04 1.20714E-04 6.07165E-03 6.02567E-04
        9 -2.26156E-04 8.51939E-02-6.74561E-04-1.30382E-04 4.23481E-02-7.41969E-04-1.48056E-05 6.00880E-03-6.11518E-04
       11 -3.83223E-04 8.58407E-02-8.03670E-06-1.42101E-04 4.26059E-02-7.17917E-06 2.70634E-04 6.20991E-03-2.61015E-05



 n o d a l   p r i n t   o u t   f o r   t i m e  s t e p    2418                              ( at time 3.9992248E+00 )

 nodal point  x-disp     y-disp      z-disp      x-vel       y-vel       z-vel      x-accl      y-accl      z-accl      x-coor      y-coor      z-coor
        5 -2.16124E-01 1.42943E-06-5.99812E+00-2.40606E-01-1.48368E-07-3.71580E+00-2.06823E-01-1.75894E-06-1.37788E+00 2.99784E+02 3.00000E+01-5.99812E+00
        6 -2.16309E-01 7.65100E-07-6.00015E+00-2.40685E-01-1.67498E-07-3.71566E+00-2.06392E-01 2.36562E-05-1.37216E+00 2.99784E+02 2.00000E+01-6.00015E+00
        9 -2.16309E-01-7.97221E-07-6.00015E+00-2.40685E-01 1.95047E-07-3.71566E+00-2.06392E-01 3.26112E-05-1.37197E+00 2.99784E+02 1.00000E+01-6.00015E+00
       11 -2.16124E-01-1.46391E-06-5.99812E+00-2.40606E-01 3.43148E-07-3.71580E+00-2.06861E-01-5.92897E-05-1.37793E+00 2.99784E+02-1.46391E-06-5.99812E+00



 n o d a l   p r i n t   o u t   f o r   t i m e  s t e p    2418                              ( at time 3.9992248E+00 )

 nodal point  x-rot      y-rot       z-rot       x-rot vel   y-rot vel   z-rot vel   x-rot acc   y-rot acc   z-rot acc
        5  3.94766E-04 9.01067E-02 8.99072E-06 8.04424E-05 4.33467E-02 1.29474E-05-6.62067E-04 7.55496E-03 6.29616E-05
        6  2.38344E-04 8.94339E-02 7.51402E-04 1.10342E-04 4.30818E-02 8.05876E-04-2.00282E-04 7.39260E-03 6.56684E-04
        9 -2.38346E-04 8.94339E-02-7.51402E-04-1.10464E-04 4.30818E-02-8.05868E-04 2.66048E-04 7.39432E-03-6.62538E-04
       11 -3.94765E-04 9.01067E-02-8.99034E-06-8.02237E-05 4.33465E-02-1.29669E-05 6.52071E-04 7.55189E-03-6.20673E-05



 n o d a l   p r i n t   o u t   f o r   t i m e  s t e p    2478                              ( at time 4.0985014E+00 )

 nodal point  x-disp     y-disp      z-disp      x-vel       y-vel       z-vel      x-accl      y-accl      z-accl      x-coor      y-coor      z-coor
        5 -2.41073E-01 1.39255E-06-6.37401E+00-2.61952E-01-3.29149E-07-3.85561E+00-2.24191E-01 8.78642E-05-1.44446E+00 2.99759E+02 3.00000E+01-6.37401E+00
        6 -2.41266E-01 7.46184E-07-6.37602E+00-2.62027E-01-3.67528E-07-3.85542E+00-2.24698E-01-1.73504E-04-1.45079E+00 2.99759E+02 2.00000E+01-6.37602E+00
        9 -2.41266E-01-7.70167E-07-6.37602E+00-2.62027E-01 1.51954E-07-3.85542E+00-2.24664E-01 1.12460E-04-1.45087E+00 2.99759E+02 1.00000E+01-6.37602E+00
       11 -2.41073E-01-1.41921E-06-6.37401E+00-2.61952E-01-5.47069E-08-3.85561E+00-2.24155E-01-3.47357E-06-1.44489E+00 2.99759E+02-1.41921E-06-6.37401E+00



 n o d a l   p r i n t   o u t   f o r   t i m e  s t e p    2478                              ( at time 4.0985014E+00 )

 nodal point  x-rot      y-rot       z-rot       x-rot vel   y-rot vel   z-rot vel   x-rot acc   y-rot acc   z-rot acc
        5  4.01486E-04 9.44605E-02 1.04150E-05 7.61997E-05 4.44270E-02 1.38413E-05 7.69126E-05 1.26613E-02-6.94906E-07
        6  2.48957E-04 9.37609E-02 8.34677E-04 1.17951E-04 4.41548E-02 8.69753E-04 3.49198E-04 1.25919E-02 6.29956E-04
        9 -2.48955E-04 9.37609E-02-8.34678E-04-1.17839E-04 4.41548E-02-8.69765E-04-4.47847E-04 1.25566E-02-6.20709E-04
       11 -4.01480E-04 9.44605E-02-1.04151E-05-7.60332E-05 4.44273E-02-1.38568E-05-1.82468E-04 1.25757E-02 1.06262E-05



 n o d a l   p r i n t   o u t   f o r   t i m e  s t e p    2539                              ( at time 4.1994324E+00 )

 nodal point  x-disp     y-disp      z-disp      x-vel       y-vel       z-vel      x-accl      y-accl      z-accl      x-coor      y-coor      z-coor
        5 -2.68705E-01 1.36439E-06-6.77075E+00-2.85518E-01-1.44511E-08-4.00472E+00-2.43106E-01 2.67263E-04-1.51334E+00 2.99731E+02 3.00000E+01-6.77075E+00
        6 -2.68907E-01 7.30227E-07-6.77276E+00-2.85634E-01-1.45520E-07-4.00492E+00-2.43477E-01-7.66401E-05-1.51590E+00 2.99731E+02 2.00000E+01-6.77276E+00
        9 -2.68907E-01-7.64853E-07-6.77276E+00-2.85634E-01 1.47138E-07-4.00492E+00-2.43510E-01 5.88793E-05-1.51565E+00 2.99731E+02 1.00000E+01-6.77276E+00
       11 -2.68705E-01-1.40147E-06-6.77075E+00-2.85518E-01-3.55055E-08-4.00472E+00-2.43226E-01-1.55082E-04-1.51328E+00 2.99731E+02-1.40147E-06-6.77075E+00



 n o d a l   p r i n t   o u t   f o r   t i m e  s t e p    2539                              ( at time 4.1994324E+00 )

 nodal point  x-rot      y-rot       z-rot       x-rot vel   y-rot vel   z-rot vel   x-rot acc   y-rot acc   z-rot acc
        5  4.12524E-04 9.90193E-02 1.15327E-05 1.29210E-04 4.59384E-02 9.56997E-06-2.58725E-04 1.39819E-02 3.27451E-05
        6  2.63177E-04 9.82925E-02 9.25717E-04 1.59865E-04 4.56656E-02 9.33923E-04 7.65356E-05 1.38681E-02 6.81361E-04
        9 -2.63172E-04 9.82925E-02-9.25719E-04-1.59897E-04 4.56655E-02-9.33922E-04-6.82970E-06 1.38812E-02-6.88250E-04
       11 -4.12515E-04 9.90193E-02-1.15330E-05-1.29134E-04 4.59385E-02-9.57727E-06 2.41423E-04 1.40109E-02-3.10605E-05



 n o d a l   p r i n t   o u t   f o r   t i m e  s t e p    2599                              ( at time 4.2987088E+00 )

 nodal point  x-disp     y-disp      z-disp      x-vel       y-vel       z-vel      x-accl      y-accl      z-accl      x-coor      y-coor      z-coor
        5 -2.98295E-01 1.37432E-06-7.17594E+00-3.10443E-01-2.89124E-07-4.15599E+00-2.60032E-01 2.57189E-04-1.54347E+00 2.99702E+02 3.00000E+01-7.17594E+00
        6 -2.98509E-01 7.41346E-07-7.17797E+00-3.10572E-01 2.66518E-07-4.15626E+00-2.60232E-01-3.11933E-05-1.54367E+00 2.99701E+02 2.00000E+01-7.17797E+00
        9 -2.98509E-01-7.63811E-07-7.17797E+00-3.10572E-01-4.67399E-07-4.15626E+00-2.60157E-01 4.99989E-05-1.54392E+00 2.99701E+02 1.00000E+01-7.17797E+00
       11 -2.98295E-01-1.39974E-06-7.17594E+00-3.10443E-01 1.42845E-07-4.15599E+00-2.59899E-01-2.21490E-04-1.54299E+00 2.99702E+02-1.39974E-06-7.17594E+00



 n o d a l   p r i n t   o u t   f o r   t i m e  s t e p    2599                              ( at time 4.2987088E+00 )

 nodal point  x-rot      y-rot       z-rot       x-rot vel   y-rot vel   z-rot vel   x-rot acc   y-rot acc   z-rot acc
        5  4.26175E-04 1.03661E-01 1.24432E-05 1.44302E-04 4.75084E-02 8.88748E-06 3.16915E-04 1.25737E-02-2.58698E-05
        6  2.79484E-04 1.02907E-01 1.02189E-03 1.74556E-04 4.72311E-02 1.00225E-03 4.36074E-04 1.24286E-02 6.72692E-04
        9 -2.79473E-04 1.02907E-01-1.02189E-03-1.74540E-04 4.72311E-02-1.00225E-03-4.29746E-04 1.24541E-02-6.73307E-04
       11 -4.26163E-04 1.03661E-01-1.24438E-05-1.44235E-04 4.75084E-02-8.89393E-06-1.85217E-04 1.26257E-02 1.22914E-05



 n o d a l   p r i n t   o u t   f o r   t i m e  s t e p    2660                              ( at time 4.3996396E+00 )

 nodal point  x-disp     y-disp      z-disp      x-vel       y-vel       z-vel      x-accl      y-accl      z-accl      x-coor      y-coor      z-coor
        5 -3.30999E-01 1.36263E-06-7.60341E+00-3.37452E-01 4.50084E-08-4.31243E+00-2.75396E-01 1.06785E-04-1.56225E+00 2.99669E+02 3.00000E+01-7.60341E+00
        6 -3.31227E-01 7.31479E-07-7.60547E+00-3.37593E-01-2.03181E-07-4.31277E+00-2.75288E-01 1.79847E-05-1.55947E+00 2.99669E+02 2.00000E+01-7.60547E+00
        9 -3.31227E-01-7.83314E-07-7.60547E+00-3.37593E-01 1.45285E-07-4.31277E+00-2.75328E-01-6.66403E-05-1.55928E+00 2.99669E+02 1.00000E+01-7.60547E+00
       11 -3.30999E-01-1.41767E-06-7.60341E+00-3.37451E-01-1.83589E-07-4.31243E+00-2.75342E-01-5.37068E-05-1.56185E+00 2.99669E+02-1.41767E-06-7.60341E+00



 n o d a l   p r i n t   o u t   f o r   t i m e  s t e p    2660                              ( at time 4.3996396E+00 )

 nodal point  x-rot      y-rot       z-rot       x-rot vel   y-rot vel   z-rot vel   x-rot acc   y-rot acc   z-rot acc
        5  4.41338E-04 1.08535E-01 1.33204E-05 1.53266E-04 4.90420E-02 8.78214E-06 3.39461E-04 1.66578E-02-2.74423E-05
        6  2.97986E-04 1.07753E-01 1.12673E-03 1.90007E-04 4.87652E-02 1.07466E-03 3.61449E-04 1.67954E-02 7.11229E-04
        9 -2.97974E-04 1.07753E-01-1.12673E-03-1.90043E-04 4.87651E-02-1.07466E-03-2.98764E-04 1.68465E-02-7.18077E-04
       11 -4.41323E-04 1.08535E-01-1.33212E-05-1.53373E-04 4.90419E-02-8.76994E-06-2.87900E-04 1.67701E-02 2.18228E-05



 n o d a l   p r i n t   o u t   f o r   t i m e  s t e p    2720                              ( at time 4.4989158E+00 )

 nodal point  x-disp     y-disp      z-disp      x-vel       y-vel       z-vel      x-accl      y-accl      z-accl      x-coor      y-coor      z-coor
        5 -3.65915E-01 1.32667E-06-8.03943E+00-3.65819E-01-1.07498E-06-4.46962E+00-2.95070E-01 4.87642E-04-1.60329E+00 2.99634E+02 3.00000E+01-8.03943E+00
        6 -3.66157E-01 7.12299E-07-8.04152E+00-3.65942E-01 8.11821E-08-4.46973E+00-2.95078E-01-3.69469E-04-1.60197E+00 2.99634E+02 2.00000E+01-8.04152E+00
        9 -3.66157E-01-7.82306E-07-8.04152E+00-3.65942E-01 2.15624E-08-4.46973E+00-2.95120E-01 3.33948E-04-1.60193E+00 2.99634E+02 1.00000E+01-8.04152E+00
       11 -3.65915E-01-1.40025E-06-8.03943E+00-3.65818E-01 9.61721E-07-4.46963E+00-2.95171E-01-3.81195E-04-1.60298E+00 2.99634E+02-1.40025E-06-8.03943E+00



 n o d a l   p r i n t   o u t   f o r   t i m e  s t e p    2720                              ( at time 4.4989158E+00 )

 nodal point  x-rot      y-rot       z-rot       x-rot vel   y-rot vel   z-rot vel   x-rot acc   y-rot acc   z-rot acc
        5  4.55109E-04 1.13481E-01 1.43940E-05 1.21722E-04 5.06002E-02 1.31320E-05-4.94188E-04 1.79876E-02 6.58296E-05
        6  3.17112E-04 1.12672E-01 1.23719E-03 1.89409E-04 5.03236E-02 1.15072E-03-3.32888E-04 1.81689E-02 8.18907E-04
        9 -3.17092E-04 1.12672E-01-1.23720E-03-1.89356E-04 5.03237E-02-1.15072E-03 4.38605E-04 1.81631E-02-8.31020E-04
       11 -4.55094E-04 1.13481E-01-1.43946E-05-1.21824E-04 5.06002E-02-1.31199E-05 6.49280E-04 1.79876E-02-8.33195E-05



 n o d a l   p r i n t   o u t   f o r   t i m e  s t e p    2781                              ( at time 4.5998464E+00 )

 nodal point  x-disp     y-disp      z-disp      x-vel       y-vel       z-vel      x-accl      y-accl      z-accl      x-coor      y-coor      z-coor
        5 -4.04402E-01 1.27620E-06-8.49892E+00-3.96643E-01-2.36588E-07-4.63319E+00-3.13863E-01-1.69361E-04-1.62336E+00 2.99596E+02 3.00000E+01-8.49892E+00
        6 -4.04658E-01 6.83300E-07-8.50103E+00-3.96808E-01-1.77499E-07-4.63361E+00-3.14911E-01 1.46937E-04-1.63181E+00 2.99595E+02 2.00000E+01-8.50103E+00
        9 -4.04658E-01-7.72408E-07-8.50103E+00-3.96808E-01-1.03146E-07-4.63361E+00-3.14850E-01-8.35802E-06-1.63153E+00 2.99595E+02 1.00000E+01-8.50103E+00
       11 -4.04402E-01-1.36812E-06-8.49892E+00-3.96642E-01 2.98489E-07-4.63319E+00-3.13909E-01-1.42837E-06-1.62371E+00 2.99596E+02-1.36812E-06-8.49892E+00



 n o d a l   p r i n t   o u t   f o r   t i m e  s t e p    2781                              ( at time 4.5998464E+00 )

 nodal point  x-rot      y-rot       z-rot       x-rot vel   y-rot vel   z-rot vel   x-rot acc   y-rot acc   z-rot acc
        5  4.68356E-04 1.18685E-01 1.56621E-05 1.61529E-04 5.25115E-02 9.56946E-06 6.59973E-04 2.24002E-02-6.50279E-05
        6  3.37265E-04 1.17848E-01 1.35732E-03 2.26304E-04 5.22341E-02 1.22689E-03 4.79464E-04 2.24814E-02 7.58774E-04
        9 -3.37242E-04 1.17848E-01-1.35732E-03-2.26219E-04 5.22342E-02-1.22690E-03-5.47164E-04 2.24962E-02-7.51127E-04
       11 -4.68331E-04 1.18685E-01-1.56638E-05-1.61471E-04 5.25115E-02-9.57509E-06-8.04552E-04 2.24201E-02 8.20762E-05



 n o d a l   p r i n t   o u t   f o r   t i m e  s t e p    2841                              ( at time 4.6991223E+00 )

 nodal point  x-disp     y-disp      z-disp      x-vel       y-vel       z-vel      x-accl      y-accl      z-accl      x-coor      y-coor      z-coor
        5 -4.45386E-01 1.28183E-06-8.96707E+00-4.28748E-01-3.44205E-08-4.79548E+00-3.31142E-01 2.78694E-04-1.62819E+00 2.99555E+02 3.00000E+01-8.96707E+00
        6 -4.45661E-01 6.94422E-07-8.96925E+00-4.28979E-01 1.14245E-06-4.79635E+00-3.31157E-01-5.27973E-04-1.62622E+00 2.99554E+02 2.00000E+01-8.96925E+00
        9 -4.45661E-01-7.79769E-07-8.96925E+00-4.28979E-01-6.68537E-07-4.79635E+00-3.31223E-01 3.89245E-04-1.62610E+00 2.99554E+02 1.00000E+01-8.96925E+00
       11 -4.45386E-01-1.37073E-06-8.96707E+00-4.28747E-01 1.75064E-07-4.79548E+00-3.31328E-01-4.12479E-05-1.62834E+00 2.99555E+02-1.37073E-06-8.96707E+00



 n o d a l   p r i n t   o u t   f o r   t i m e  s t e p    2841                              ( at time 4.6991223E+00 )

 nodal point  x-rot      y-rot       z-rot       x-rot vel   y-rot vel   z-rot vel   x-rot acc   y-rot acc   z-rot acc
        5  4.88190E-04 1.23996E-01 1.62158E-05 2.16451E-04 5.44372E-02 4.12082E-06 4.96421E-04 2.18000E-02-4.83434E-05
        6  3.62381E-04 1.23132E-01 1.48294E-03 2.73893E-04 5.41692E-02 1.30388E-03 4.10880E-04 2.17595E-02 8.03779E-04
        9 -3.62365E-04 1.23132E-01-1.48295E-03-2.73954E-04 5.41693E-02-1.30388E-03-4.09161E-04 2.17444E-02-8.03952E-04
       11 -4.88163E-04 1.23996E-01-1.62176E-05-2.16532E-04 5.44373E-02-4.10951E-06-5.26095E-04 2.17664E-02 5.20244E-05



 n o d a l   p r i n t   o u t   f o r   t i m e  s t e p    2901                              ( at time 4.7983981E+00 )

 nodal point  x-disp     y-disp      z-disp      x-vel       y-vel       z-vel      x-accl      y-accl      z-accl      x-coor      y-coor      z-coor
        5 -4.89635E-01 1.31442E-06-9.45129E+00-4.62339E-01-5.52422E-07-4.95640E+00-3.42574E-01 4.03212E-04-1.59052E+00 2.99510E+02 3.00000E+01-9.45129E+00
        6 -4.89934E-01 7.22570E-07-9.45355E+00-4.62583E-01-1.11440E-07-4.95726E+00-3.43588E-01-2.88800E-05-1.59493E+00 2.99510E+02 2.00000E+01-9.45355E+00
        9 -4.89934E-01-7.85969E-07-9.45355E+00-4.62583E-01-1.82540E-07-4.95726E+00-3.43477E-01 2.17234E-04-1.59474E+00 2.99510E+02 1.00000E+01-9.45355E+00
[...]
        6  2.74788E-03 2.64744E-01 1.26456E-02 9.08517E-04 2.16633E-02 3.33909E-03-1.67626E-04 1.32691E-02 8.16400E-05
        9 -2.74788E-03 2.64744E-01-1.26457E-02-9.08387E-04 2.16632E-02-3.33914E-03 3.43395E-05 1.32169E-02-4.55542E-05
       11 -3.33074E-04 2.65319E-01-1.70997E-04 1.49884E-05 2.14684E-02-1.55160E-05 2.31033E-04 1.31501E-02-6.50655E-05



 n o d a l   p r i n t   o u t   f o r   t i m e  s t e p    5379                              ( at time 8.8983945E+00 )

 nodal point  x-disp     y-disp      z-disp      x-vel       y-vel       z-vel      x-accl      y-accl      z-accl      x-coor      y-coor      z-coor
        5 -4.21024E+00-1.81602E-06-3.27728E+01-1.21754E+00-1.37023E-06-5.60290E+00-6.29750E-02 1.19576E-03 6.99011E-02 2.95790E+02 3.00000E+01-3.27728E+01
        6 -4.21023E+00-5.06523E-07-3.27728E+01-1.21747E+00 1.61059E-06-5.60268E+00-6.40378E-02-7.16565E-04 6.75649E-02 2.95790E+02 2.00000E+01-3.27728E+01
        9 -4.21023E+00 9.04964E-07-3.27728E+01-1.21747E+00-2.59095E-06-5.60268E+00-6.37221E-02 6.63502E-04 6.87871E-02 2.95790E+02 1.00000E+01-3.27728E+01
       11 -4.21024E+00 2.22261E-06-3.27728E+01-1.21754E+00-9.50743E-08-5.60290E+00-6.31737E-02-8.00014E-04 6.93788E-02 2.95790E+02 2.22261E-06-3.27728E+01



 n o d a l   p r i n t   o u t   f o r   t i m e  s t e p    5379                              ( at time 8.8983945E+00 )

 nodal point  x-rot      y-rot       z-rot       x-rot vel   y-rot vel   z-rot vel   x-rot acc   y-rot acc   z-rot acc
        5  3.29396E-04 2.67507E-01 1.73155E-04-5.66631E-05 2.25998E-02 2.70669E-05 2.12542E-04 1.25942E-02-5.59033E-05
        6  2.83514E-03 2.66952E-01 1.29781E-02 8.62994E-04 2.27904E-02 3.35469E-03-7.82072E-06 1.27391E-02 3.11545E-05
        9 -2.83515E-03 2.66952E-01-1.29781E-02-8.62932E-04 2.27904E-02-3.35471E-03 6.13837E-05 1.28222E-02-4.57751E-05
       11 -3.29359E-04 2.67507E-01-1.73153E-04 5.69738E-05 2.25997E-02-2.71508E-05-5.95173E-04 1.27680E-02 1.60529E-04



 n o d a l   p r i n t   o u t   f o r   t i m e  s t e p    5440                              ( at time 8.9993205E+00 )

 nodal point  x-disp     y-disp      z-disp      x-vel       y-vel       z-vel      x-accl      y-accl      z-accl      x-coor      y-coor      z-coor
        5 -4.33338E+00-1.82351E-06-3.33378E+01-1.22179E+00 1.99749E-07-5.59091E+00-1.73592E-02 3.85791E-04 1.73261E-01 2.95667E+02 3.00000E+01-3.33378E+01
        6 -4.33337E+00-2.84837E-07-3.33377E+01-1.22203E+00 3.57866E-06-5.59181E+00-2.13435E-02-4.80969E-04 1.60101E-01 2.95667E+02 2.00000E+01-3.33377E+01
        9 -4.33337E+00 6.81383E-07-3.33377E+01-1.22204E+00-2.51845E-06-5.59181E+00-2.11315E-02 5.66998E-04 1.60731E-01 2.95667E+02 1.00000E+01-3.33377E+01
       11 -4.33338E+00 2.22872E-06-3.33378E+01-1.22179E+00 9.89772E-07-5.59091E+00-1.74310E-02-4.15291E-04 1.73048E-01 2.95667E+02 2.22872E-06-3.33378E+01



 n o d a l   p r i n t   o u t   f o r   t i m e  s t e p    5440                              ( at time 8.9993205E+00 )

 nodal point  x-rot      y-rot       z-rot       x-rot vel   y-rot vel   z-rot vel   x-rot acc   y-rot acc   z-rot acc
        5  3.30927E-04 2.69847E-01 1.73906E-04 1.13815E-04 2.37062E-02-1.96181E-05 2.17520E-03 5.91983E-03-5.99454E-04
        6  2.92486E-03 2.69311E-01 1.33161E-02 9.29853E-04 2.38925E-02 3.33890E-03 1.14144E-03 5.69093E-03-2.92513E-04
        9 -2.92488E-03 2.69311E-01-1.33161E-02-9.30703E-04 2.38926E-02-3.33868E-03-8.81616E-04 5.65587E-03 2.20837E-04
       11 -3.30896E-04 2.69847E-01-1.73903E-04-1.13253E-04 2.37064E-02 1.94639E-05-2.22826E-03 5.85715E-03 6.14113E-04



 n o d a l   p r i n t   o u t   f o r   t i m e  s t e p    5500                              ( at time 9.0985918E+00 )

 nodal point  x-disp     y-disp      z-disp      x-vel       y-vel       z-vel      x-accl      y-accl      z-accl      x-coor      y-coor      z-coor
        5 -4.45466E+00-1.81901E-06-3.38917E+01-1.22054E+00 7.34330E-08-5.56621E+00 4.07720E-02 9.24491E-04 3.20109E-01 2.95545E+02 3.00000E+01-3.38917E+01
        6 -4.45468E+00-5.23895E-08-3.38917E+01-1.22084E+00 2.87452E-06-5.56729E+00 4.28593E-02-8.19870E-04 3.29313E-01 2.95545E+02 2.00000E+01-3.38917E+01
        9 -4.45468E+00 4.17847E-07-3.38917E+01-1.22084E+00-2.72930E-06-5.56729E+00 4.26183E-02 1.08754E-03 3.28755E-01 2.95545E+02 1.00000E+01-3.38917E+01
       11 -4.45466E+00 2.19402E-06-3.38917E+01-1.22054E+00 5.62589E-07-5.56621E+00 4.13588E-02-1.40681E-03 3.20947E-01 2.95545E+02 2.19402E-06-3.38917E+01



 n o d a l   p r i n t   o u t   f o r   t i m e  s t e p    5500                              ( at time 9.0985918E+00 )

 nodal point  x-rot      y-rot       z-rot       x-rot vel   y-rot vel   z-rot vel   x-rot acc   y-rot acc   z-rot acc
        5  3.46719E-04 2.72227E-01 1.70721E-04 1.55981E-04 2.40849E-02-3.11839E-05-6.51956E-04-3.79727E-03 1.80975E-04
        6  3.01960E-03 2.71710E-01 1.36470E-02 9.47829E-04 2.42620E-02 3.33589E-03-9.86605E-04-4.27217E-03 2.90955E-04
        9 -3.01961E-03 2.71710E-01-1.36470E-02-9.47210E-04 2.42619E-02-3.33607E-03 1.04195E-03-4.26075E-03-3.06399E-04
       11 -3.46691E-04 2.72227E-01-1.70717E-04-1.56394E-04 2.40846E-02 3.13001E-05 9.37951E-04-3.76862E-03-2.60669E-04



 n o d a l   p r i n t   o u t   f o r   t i m e  s t e p    5561                              ( at time 9.1995173E+00 )

 nodal point  x-disp     y-disp      z-disp      x-vel       y-vel       z-vel      x-accl      y-accl      z-accl      x-coor      y-coor      z-coor
        5 -4.57751E+00-1.80499E-06-3.44515E+01-1.21304E+00-7.77696E-07-5.52498E+00 1.08517E-01 1.05974E-03 4.87958E-01 2.95422E+02 3.00000E+01-3.44515E+01
        6 -4.57755E+00 2.12727E-07-3.44516E+01-1.21316E+00 3.58295E-06-5.52542E+00 1.07535E-01-3.46552E-04 4.85332E-01 2.95422E+02 2.00000E+01-3.44516E+01
        9 -4.57755E+00 1.73810E-07-3.44516E+01-1.21316E+00-2.77249E-06-5.52542E+00 1.07865E-01 4.71655E-04 4.86995E-01 2.95422E+02 1.00000E+01-3.44516E+01
       11 -4.57751E+00 2.20053E-06-3.44515E+01-1.21304E+00 1.94042E-06-5.52498E+00 1.08102E-01-1.24203E-03 4.86758E-01 2.95422E+02 2.20053E-06-3.44515E+01



 n o d a l   p r i n t   o u t   f o r   t i m e  s t e p    5561                              ( at time 9.1995173E+00 )

 nodal point  x-rot      y-rot       z-rot       x-rot vel   y-rot vel   z-rot vel   x-rot acc   y-rot acc   z-rot acc
        5  3.57797E-04 2.74636E-01 1.68873E-04 9.45646E-05 2.35160E-02-1.41346E-05 2.07765E-04-1.11272E-02-6.04652E-05
        6  3.11257E-03 2.74134E-01 1.39845E-02 9.08552E-04 2.36620E-02 3.34821E-03 1.77429E-04-1.13403E-02-3.96409E-05
        9 -3.11260E-03 2.74134E-01-1.39845E-02-9.08856E-04 2.36620E-02-3.34814E-03 8.97413E-05-1.13722E-02-3.54141E-05
       11 -3.57779E-04 2.74636E-01-1.68866E-04-9.47103E-05 2.35154E-02 1.41763E-05-6.66355E-04-1.12084E-02 1.89460E-04



 n o d a l   p r i n t   o u t   f o r   t i m e  s t e p    5621                              ( at time 9.2987879E+00 )

 nodal point  x-disp     y-disp      z-disp      x-vel       y-vel       z-vel      x-accl      y-accl      z-accl      x-coor      y-coor      z-coor
        5 -4.69730E+00-1.74922E-06-3.49973E+01-1.19961E+00-5.88348E-08-5.47072E+00 1.59127E-01-4.25546E-04 5.95454E-01 2.95303E+02 3.00000E+01-3.49973E+01
        6 -4.69735E+00 5.27045E-07-3.49975E+01-1.19975E+00 2.65338E-06-5.47119E+00 1.59954E-01-6.81173E-04 5.98510E-01 2.95303E+02 2.00000E+01-3.49975E+01
        9 -4.69735E+00-1.88140E-08-3.49975E+01-1.19975E+00-3.28713E-06-5.47119E+00 1.59564E-01 5.92241E-04 5.96893E-01 2.95303E+02 1.00000E+01-3.49975E+01
       11 -4.69730E+00 2.26691E-06-3.49973E+01-1.19961E+00-7.53105E-07-5.47072E+00 1.59117E-01 4.10866E-04 5.95783E-01 2.95303E+02 2.26691E-06-3.49973E+01



 n o d a l   p r i n t   o u t   f o r   t i m e  s t e p    5621                              ( at time 9.2987879E+00 )

 nodal point  x-rot      y-rot       z-rot       x-rot vel   y-rot vel   z-rot vel   x-rot acc   y-rot acc   z-rot acc
        5  3.67695E-04 2.76919E-01 1.67317E-04 9.82151E-05 2.24905E-02-1.53452E-05-3.93598E-04-1.37463E-02 1.09163E-04
        6  3.20478E-03 2.76430E-01 1.43163E-02 9.35147E-04 2.26217E-02 3.34146E-03-4.24229E-04-1.36293E-02 1.24529E-04
        9 -3.20481E-03 2.76430E-01-1.43163E-02-9.35062E-04 2.26215E-02-3.34150E-03 1.67184E-04-1.36793E-02-5.16406E-05
       11 -3.67680E-04 2.76919E-01-1.67309E-04-9.81898E-05 2.24908E-02 1.53385E-05 6.69746E-04-1.38651E-02-1.87495E-04



 n o d a l   p r i n t   o u t   f o r   t i m e  s t e p    5682                              ( at time 9.3997128E+00 )

 nodal point  x-disp     y-disp      z-disp      x-vel       y-vel       z-vel      x-accl      y-accl      z-accl      x-coor      y-coor      z-coor
        5 -4.81745E+00-1.76045E-06-3.55461E+01-1.18079E+00-1.39461E-06-5.40427E+00 2.16025E-01 4.60132E-04 7.25664E-01 2.95183E+02 3.00000E+01-3.55461E+01
        6 -4.81751E+00 7.90660E-07-3.55463E+01-1.18082E+00 4.10180E-06-5.40438E+00 2.16282E-01-5.36924E-04 7.28797E-01 2.95182E+02 2.00000E+01-3.55463E+01
        9 -4.81751E+00-2.84366E-07-3.55463E+01-1.18082E+00-3.76602E-06-5.40438E+00 2.16275E-01 4.18881E-04 7.28679E-01 2.95182E+02 1.00000E+01-3.55463E+01
       11 -4.81745E+00 2.27575E-06-3.55461E+01-1.18079E+00 1.26921E-06-5.40427E+00 2.15990E-01-4.90150E-04 7.25792E-01 2.95183E+02 2.27575E-06-3.55461E+01



 n o d a l   p r i n t   o u t   f o r   t i m e  s t e p    5682                              ( at time 9.3997128E+00 )

 nodal point  x-rot      y-rot       z-rot       x-rot vel   y-rot vel   z-rot vel   x-rot acc   y-rot acc   z-rot acc
        5  3.74809E-04 2.79120E-01 1.66552E-04 4.43997E-05 2.11005E-02-2.66450E-07 3.65068E-04-1.34408E-02-1.06892E-04
        6  3.29920E-03 2.78644E-01 1.46536E-02 9.38483E-04 2.12111E-02 3.34064E-03 3.02274E-04-1.36113E-02-8.81174E-05
        9 -3.29924E-03 2.78644E-01-1.46536E-02-9.38204E-04 2.12109E-02-3.34073E-03-3.33509E-04-1.35981E-02 9.70307E-05
       11 -3.74798E-04 2.79120E-01-1.66543E-04-4.43209E-05 2.11009E-02 2.44303E-07-4.16412E-04-1.34036E-02 1.21577E-04



 n o d a l   p r i n t   o u t   f o r   t i m e  s t e p    5742                              ( at time 9.4989828E+00 )

 nodal point  x-disp     y-disp      z-disp      x-vel       y-vel       z-vel      x-accl      y-accl      z-accl      x-coor      y-coor      z-coor
        5 -4.93349E+00-1.75107E-06-3.60788E+01-1.15649E+00 1.46560E-06-5.32654E+00 2.76745E-01-8.11240E-04 8.54527E-01 2.95066E+02 3.00000E+01-3.60788E+01
        6 -4.93356E+00 1.05451E-06-3.60790E+01-1.15660E+00 1.90853E-06-5.32691E+00 2.76038E-01 7.31987E-04 8.50520E-01 2.95066E+02 2.00000E+01-3.60790E+01
        9 -4.93356E+00-5.49432E-07-3.60790E+01-1.15660E+00-1.80983E-06-5.32691E+00 2.76118E-01-8.41346E-04 8.51179E-01 2.95066E+02 1.00000E+01-3.60790E+01
       11 -4.93349E+00 2.26468E-06-3.60788E+01-1.15649E+00-1.38741E-06-5.32654E+00 2.76395E-01 1.05907E-03 8.54108E-01 2.95066E+02 2.26468E-06-3.60788E+01



 n o d a l   p r i n t   o u t   f o r   t i m e  s t e p    5742                              ( at time 9.4989828E+00 )

 nodal point  x-rot      y-rot       z-rot       x-rot vel   y-rot vel   z-rot vel   x-rot acc   y-rot acc   z-rot acc
        5  3.80156E-04 2.81126E-01 1.66240E-04 6.82169E-05 1.92198E-02-7.45153E-06-7.06161E-04-2.15432E-02 1.99754E-04
        6  3.39384E-03 2.80661E-01 1.49847E-02 9.77871E-04 1.93281E-02 3.32885E-03 5.80501E-04-2.15075E-02-1.75029E-04
        9 -3.39388E-03 2.80661E-01-1.49848E-02-9.78409E-04 1.93280E-02-3.32871E-03-6.19592E-04-2.14980E-02 1.86318E-04
       11 -3.80160E-04 2.81126E-01-1.66227E-04-6.79097E-05 1.92200E-02 7.36310E-06 3.86355E-04-2.15094E-02-1.07553E-04



 n o d a l   p r i n t   o u t   f o r   t i m e  s t e p    5803                              ( at time 9.5999070E+00 )

 nodal point  x-disp     y-disp      z-disp      x-vel       y-vel       z-vel      x-accl      y-accl      z-accl      x-coor      y-coor      z-coor
        5 -5.04871E+00-1.76363E-06-3.66118E+01-1.12669E+00-9.94368E-08-5.23709E+00 3.12477E-01-9.50885E-06 9.13546E-01 2.94951E+02 3.00000E+01-3.66118E+01
        6 -5.04878E+00 1.29806E-06-3.66121E+01-1.12650E+00 3.24251E-06-5.23644E+00 3.17318E-01-3.55417E-04 9.31775E-01 2.94951E+02 2.00000E+01-3.66121E+01
        9 -5.04878E+00-8.40038E-07-3.66121E+01-1.12650E+00-3.20171E-06-5.23644E+00 3.16865E-01 3.64983E-04 9.30394E-01 2.94951E+02 1.00000E+01-3.66121E+01
       11 -5.04871E+00 2.23075E-06-3.66118E+01-1.12669E+00 7.65101E-09-5.23709E+00 3.12467E-01 4.94444E-05 9.14469E-01 2.94951E+02 2.23075E-06-3.66118E+01



 n o d a l   p r i n t   o u t   f o r   t i m e  s t e p    5803                              ( at time 9.5999070E+00 )

 nodal point  x-rot      y-rot       z-rot       x-rot vel   y-rot vel   z-rot vel   x-rot acc   y-rot acc   z-rot acc
        5  3.80878E-04 2.82926E-01 1.67245E-04-9.82826E-05 1.64433E-02 4.02739E-05-3.46281E-03-2.73688E-02 1.00048E-03
        6  3.49229E-03 2.82473E-01 1.53207E-02 9.36145E-04 1.65655E-02 3.33983E-03-1.25686E-03-2.75067E-02 3.50667E-04
        9 -3.49235E-03 2.82473E-01-1.53207E-02-9.35919E-04 1.65654E-02-3.33991E-03 1.05103E-03-2.75097E-02-2.90973E-04
       11 -3.80902E-04 2.82926E-01-1.67227E-04 9.77498E-05 1.64425E-02-4.01193E-05 3.77412E-03-2.73671E-02-1.09086E-03



 n o d a l   p r i n t   o u t   f o r   t i m e  s t e p    5863                              ( at time 9.6991763E+00 )

 nodal point  x-disp     y-disp      z-disp      x-vel       y-vel       z-vel      x-accl      y-accl      z-accl      x-coor      y-coor      z-coor
        5 -5.15895E+00-1.71841E-06-3.71271E+01-1.09451E+00 2.02480E-06-5.14642E+00 3.33395E-01-1.88177E-03 9.09770E-01 2.94841E+02 3.00000E+01-3.71271E+01
        6 -5.15898E+00 1.57942E-06-3.71272E+01-1.09402E+00 1.07416E-06-5.14476E+00 3.33924E-01 1.91483E-03 9.07915E-01 2.94841E+02 2.00000E+01-3.71272E+01
        9 -5.15898E+00-1.02220E-06-3.71272E+01-1.09402E+00-5.03087E-09-5.14476E+00 3.34267E-01-2.11983E-03 9.08894E-01 2.94841E+02 1.00000E+01-3.71272E+01
       11 -5.15895E+00 2.28303E-06-3.71271E+01-1.09451E+00-1.35299E-06-5.14641E+00 3.33219E-01 2.01231E-03 9.09246E-01 2.94841E+02 2.28303E-06-3.71271E+01



 n o d a l   p r i n t   o u t   f o r   t i m e  s t e p    5863                              ( at time 9.6991763E+00 )

 nodal point  x-rot      y-rot       z-rot       x-rot vel   y-rot vel   z-rot vel   x-rot acc   y-rot acc   z-rot acc
        5  3.60018E-04 2.84419E-01 1.74448E-04-2.63323E-04 1.37495E-02 8.78330E-05 4.74109E-04-2.28562E-02-1.41891E-04
        6  3.58182E-03 2.83977E-01 1.56532E-02 8.87851E-04 1.38839E-02 3.35228E-03 7.69702E-04-2.24392E-02-2.42036E-04
        9 -3.58189E-03 2.83977E-01-1.56532E-02-8.87758E-04 1.38837E-02-3.35231E-03-5.69062E-04-2.24336E-02 1.83447E-04
       11 -3.60057E-04 2.84419E-01-1.74425E-04 2.62735E-04 1.37491E-02-8.76617E-05-6.85763E-04-2.28706E-02 2.03688E-04



 n o d a l   p r i n t   o u t   f o r   t i m e  s t e p    5923                              ( at time 9.7984454E+00 )

 nodal point  x-disp     y-disp      z-disp      x-vel       y-vel       z-vel      x-accl      y-accl      z-accl      x-coor      y-coor      z-coor
        5 -5.26593E+00-1.64616E-06-3.76336E+01-1.06156E+00 2.44618E-06-5.05962E+00 3.27110E-01-1.24245E-03 8.33527E-01 2.94734E+02 3.00000E+01-3.76336E+01
        6 -5.26592E+00 1.87020E-06-3.76335E+01-1.06117E+00 2.67718E-06-5.05830E+00 3.28114E-01 6.58341E-04 8.35907E-01 2.94734E+02 2.00000E+01-3.76335E+01
        9 -5.26592E+00-1.18890E-06-3.76335E+01-1.06117E+00-1.60341E-06-5.05830E+00 3.27853E-01-7.53399E-04 8.35198E-01 2.94734E+02 1.00000E+01-3.76335E+01
       11 -5.26593E+00 2.33668E-06-3.76336E+01-1.06156E+00-1.17646E-06-5.05961E+00 3.26892E-01 8.54618E-04 8.33051E-01 2.94734E+02 2.33668E-06-3.76336E+01



 n o d a l   p r i n t   o u t   f o r   t i m e  s t e p    5923                              ( at time 9.7984454E+00 )

 nodal point  x-rot      y-rot       z-rot       x-rot vel   y-rot vel   z-rot vel   x-rot acc   y-rot acc   z-rot acc
        5  3.35201E-04 2.85671E-01 1.82764E-04-2.56454E-04 1.16529E-02 8.55407E-05-1.38917E-03-1.44403E-02 4.05640E-04
        6  3.67246E-03 2.85245E-01 1.59851E-02 9.28955E-04 1.18279E-02 3.33841E-03-5.87903E-04-1.39965E-02 1.52850E-04
        9 -3.67254E-03 2.85245E-01-1.59851E-02-9.28951E-04 1.18277E-02-3.33842E-03 5.79569E-05-1.39743E-02 2.56711E-06
       11 -3.35241E-04 2.85671E-01-1.82741E-04 2.56439E-04 1.16529E-02-8.55363E-05 1.10594E-03-1.43774E-02-3.22563E-04



 n o d a l   p r i n t   o u t   f o r   t i m e  s t e p    5984                              ( at time 9.8993687E+00 )

 nodal point  x-disp     y-disp      z-disp      x-vel       y-vel       z-vel      x-accl      y-accl      z-accl      x-coor      y-coor      z-coor
        5 -5.37139E+00-1.60325E-06-3.81401E+01-1.02883E+00 2.27033E-06-4.97990E+00 3.26436E-01-8.16676E-04 7.58636E-01 2.94629E+02 3.00000E+01-3.81401E+01
        6 -5.37133E+00 2.09620E-06-3.81399E+01-1.02835E+00 1.40449E-06-4.97828E+00 3.24941E-01 1.10033E-03 7.51679E-01 2.94629E+02 2.00000E+01-3.81399E+01
        9 -5.37133E+00-1.40524E-06-3.81399E+01-1.02835E+00 2.35211E-08-4.97828E+00 3.24559E-01-1.14892E-03 7.50799E-01 2.94629E+02 1.00000E+01-3.81399E+01
       11 -5.37139E+00 2.30298E-06-3.81401E+01-1.02883E+00-9.14033E-07-4.97990E+00 3.26641E-01 9.73815E-04 7.59415E-01 2.94629E+02 2.30298E-06-3.81401E+01



 n o d a l   p r i n t   o u t   f o r   t i m e  s t e p    5984                              ( at time 9.8993687E+00 )

 nodal point  x-rot      y-rot       z-rot       x-rot vel   y-rot vel   z-rot vel   x-rot acc   y-rot acc   z-rot acc
        5  3.05097E-04 2.86777E-01 1.92629E-04-3.20320E-04 1.04013E-02 1.04157E-04 3.22543E-05-1.09711E-02-1.06175E-05
        6  3.76463E-03 2.86370E-01 1.63224E-02 9.14495E-04 1.05978E-02 3.34062E-03 1.54564E-04-1.07427E-02-6.56105E-05
        9 -3.76472E-03 2.86370E-01-1.63224E-02-9.14193E-04 1.05981E-02-3.34072E-03-9.43382E-05-1.07851E-02 4.78855E-05
       11 -3.05141E-04 2.86777E-01-1.92604E-04 3.19610E-04 1.04014E-02-1.03948E-04 3.10700E-04-1.10528E-02-9.03977E-05



 n o d a l   p r i n t   o u t   f o r   t i m e  s t e p    6044                              ( at time 9.9986372E+00 )

 nodal point  x-disp     y-disp      z-disp      x-vel       y-vel       z-vel      x-accl      y-accl      z-accl      x-coor      y-coor      z-coor
        5 -5.47187E+00-1.52332E-06-3.86306E+01-9.96007E-01 7.26821E-08-4.90512E+00 3.32075E-01-1.13793E-04 7.40006E-01 2.94528E+02 3.00000E+01-3.86306E+01
        6 -5.47178E+00 2.32018E-06-3.86303E+01-9.95858E-01 1.90341E-06-4.90464E+00 3.29552E-01-4.85650E-04 7.31596E-01 2.94528E+02 2.00000E+01-3.86303E+01
        9 -5.47178E+00-1.61580E-06-3.86303E+01-9.95859E-01-3.76061E-06-4.90464E+00 3.29902E-01 4.09326E-04 7.32748E-01 2.94528E+02 1.00000E+01-3.86303E+01
       11 -5.47187E+00 2.23632E-06-3.86306E+01-9.96008E-01-2.00794E-06-4.90511E+00 3.32124E-01-1.50894E-04 7.39469E-01 2.94528E+02 2.23632E-06-3.86306E+01



 n o d a l   p r i n t   o u t   f o r   t i m e  s t e p    6044                              ( at time 9.9986372E+00 )

 nodal point  x-rot      y-rot       z-rot       x-rot vel   y-rot vel   z-rot vel   x-rot acc   y-rot acc   z-rot acc
        5  2.80181E-04 2.87766E-01 2.00934E-04-1.79859E-04 9.53817E-03 6.26222E-05 1.06599E-03-1.06241E-02-3.16053E-04
        6  3.85850E-03 2.87380E-01 1.66530E-02 9.82990E-04 9.76035E-03 3.31846E-03 5.14627E-04-1.04026E-02-1.71707E-04
        9 -3.85859E-03 2.87380E-01-1.66530E-02-9.83079E-04 9.76025E-03-3.31844E-03-3.33688E-04-1.03625E-02 1.18233E-04
       11 -2.80229E-04 2.87766E-01-2.00908E-04 1.80393E-04 9.53797E-03-6.27801E-05-1.37057E-03-1.05512E-02 4.06105E-04
