$# LS-DYNA Keyword file created by LS-PrePost(R) V4.5.14 - 14Feb2018
$# Created on Oct-28-2019 (22:58:46)
$$ HM_OUTPUT_DECK created 21:28:11 10-28-2019 by HyperMesh Version 2017.1.0.19
$$ Ls-dyna Input Deck Generated by HyperMesh Version  : 2017.1.0.19
$$ Generated using HyperMesh-Ls-dyna 971_R8.0 Template Version : 2017.1
*KEYWORD
*TITLE
$#                                                                         title
LS-DYNA keyword deck by LS-PrePost
*CONTROL_HOURGLASS
$#     ihq        qh  
         4      0.03
*CONTROL_TERMINATION
$#  endtim    endcyc     dtmin    endeng    endmas     nosol     
      0.01         0       0.0       0.01.000000E8         0
*DATABASE_BINARY_D3PLOT
$#      dt      lcdt      beam     npltc    psetid      
1.00000E-4         0         0         0         0
$#   ioopt     
         0
*BOUNDARY_SPC_SET_ID
$#      id                                                               heading
         0Boundary Cell C1
$#    nsid       cid      dofx      dofy      dofz     dofrx     dofry     dofrz
         1         0         1         1         1         1         1         1
*SET_NODE_LIST_TITLE
Cell C1 - All Nodes
$#     sid       da1       da2       da3       da4    solver      
         1       0.0       0.0       0.0       0.0MECH
$#    nid1      nid2      nid3      nid4      nid5      nid6      nid7      nid8
         1         2         3         4         5         6         7         8
         9        10        11        12        13        14        15        16
        17        18        19        20        21        22        23        24
        25        26        27        28        29        30        31        32
        33        34        35        36        37        38        39        40
        41        42        43        44        45        46        47        48
        49        50        51        52        53        54        55        56
        57        58        59        60        61        62        63        64
        65        66        67        68        69        70        71        72
        73        74        75        76        77        78        79        80
        81        82        83        84        85        86        87        88
        89        90        91        92        93        94        95        96
        97        98        99       100       101       102       103       104
       105       106       107       108       109       110       111       112
       113       114       115       116       117       118       119       120
       121       122       123       124       125       126       127       128
       129       130       131       132       133       134       135       136
       137       138       139       140       141       142       143       144
       145       146       147       148       149       150       151       152
       153       154       155       156       157       158       159       160
$ ... 124 like lines cut
*BOUNDARY_SPC_SET_ID
$#      id                                                               heading
         0Impactor
$#    nsid       cid      dofx      dofy      dofz     dofrx     dofry     dofrz
         2         0         1         1         0         1         1         1
*SET_NODE_LIST_TITLE
Impactor - All Nodes
$#     sid       da1       da2       da3       da4    solver      
         2       0.0       0.0       0.0       0.0MECH
$#    nid1      nid2      nid3      nid4      nid5      nid6      nid7      nid8
      4595      4596      4597      4598      4599      4600      4601      4602
      4603      4604      4605      4606      4607      4608      4609      4610
      4611      4612      4613      4614      4615      4616      4617      4618
      4619      4620      4621      4622      4623      4624      4625      4626
      4627      4628      4629      4630      4631      4632      4633      4634
      4635      4636      4637      4638      4639      4640      4641      4642
      4643      4644      4645      4646      4647      4648      4649      4650
      4651      4652      4653      4654      4655      4656      4657      4658
      4659      4660      4661      4662      4663      4664      4665      4666
      4667      4668      4669      4670      4671      4672      4673      4674
      4675      4676      4677      4678      4679      4680      4681      4682
      4683      4684      4685      4686      4687      4688      4689      4690
      4691      4692      4693      4694      4695      4696      4697      4698
      4699      4700      4701      4702      4703      4704      4705      4706
      4707      4708      4709      4710      4711      4712      4713      4714
      4715      4716      4717      4718      4719      4720      4721      4722
      4723      4724      4725      4726      4727      4728      4729      4730
      4731      4732      4733      4734      4735      4736      4737      4738
      4739      4740      4741      4742      4743      4744      4745      4746
      4747      4748      4749      4750      4751      4752      4753      4754
$ ... 242 like lines cut
*CONTACT_AUTOMATIC_SURFACE_TO_SURFACE_ID
$#     cid                                                                 title
         0Impactor - Cell C4
$#    ssid      msid     sstyp     mstyp    sboxid    mboxid       spr       mpr
         5         4         3         3         0         0         0         0
$#      fs        fd        dc        vc       vdc    penchk        bt        dt
       0.2       0.2       0.0       0.0      20.0         0       0.01.00000E20
$#     sfs       sfm       sst       mst      sfst      sfmt       fsf       vsf
       1.0       1.0       0.0       0.0       1.0       1.0       1.0       1.0
*CONTACT_AUTOMATIC_SINGLE_SURFACE_ID
$#     cid                                                                 title
         0Cell Stack C1 - C2 - C3 - C4
$#    ssid      msid     sstyp     mstyp    sboxid    mboxid       spr       mpr
         1         0         2         2         0         0         0         0
$#      fs        fd        dc        vc       vdc    penchk        bt        dt
       0.2       0.2       0.0       0.0      20.0         0       0.01.00000E20
$#     sfs       sfm       sst       mst      sfst      sfmt       fsf       vsf
       1.0       1.0       0.0       0.0       1.0       1.0       1.0       1.0
*SET_PART_LIST_TITLE
All Cells
$#     sid       da1       da2       da3       da4    solver      
         1       0.0       0.0       0.0       0.0MECH
$#    pid1      pid2      pid3      pid4      pid5      pid6      pid7      pid8
         4         3         2         1         0         0         0         0
*PART
$#                                                                         title
Cell C1
$#     pid     secid       mid     eosid      hgid      grav    adpopt      tmid
         1         1         1         0         0         0         0         0
*SECTION_SOLID_TITLE
Cell C1
$#   secid    elform       aet   
         1         2         0
*MAT_PIECEWISE_LINEAR_PLASTICITY_TITLE
Cell Material
$#     mid        ro         e        pr      sigy      etan      fail      tdel
         15.00000E-9   10000.0       0.3      10.0      10.01.00000E21       0.0
$#       c         p      lcss      lcsr        vp  
       0.0       0.0         0         0       0.0
$#    eps1      eps2      eps3      eps4      eps5      eps6      eps7      eps8
       0.0       0.0       0.0       0.0       0.0       0.0       0.0       0.0
$#     es1       es2       es3       es4       es5       es6       es7       es8
       0.0       0.0       0.0       0.0       0.0       0.0       0.0       0.0
*PART
$#                                                                         title
Cell C2
$#     pid     secid       mid     eosid      hgid      grav    adpopt      tmid
         2         2         1         0         0         0         0         0
*SECTION_SOLID_TITLE
Cell C2
$#   secid    elform       aet   
         2         2         0
*PART
$#                                                                         title
Cell C3
$#     pid     secid       mid     eosid      hgid      grav    adpopt      tmid
         3         3         1         0         0         0         0         0
*SECTION_SOLID_TITLE
Cell C3
$#   secid    elform       aet   
         3         2         0
*PART
$#                                                                         title
Cell C4
$#     pid     secid       mid     eosid      hgid      grav    adpopt      tmid
         4         4         1         0         0         0         0         0
*SECTION_SOLID_TITLE
Cell C4
$#   secid    elform       aet   
         4         2         0
*PART
$#                                                                         title
Impactor
$#     pid     secid       mid     eosid      hgid      grav    adpopt      tmid
         5         5         2         0         0         0         0         0
*SECTION_SOLID_TITLE
Impactor
$#   secid    elform       aet   
         5         1         0
*MAT_ELASTIC_TITLE
Impactor
$#     mid        ro         e        pr        da        db  not used        
         27.87000E-9  210000.0       0.3       0.0       0.0         0
*INITIAL_VELOCITY
$#    nsid    nsidex     boxid    irigid      icid    
         2         0         0         0         0
$#      vx        vy        vz       vxr       vyr       vzr   
       0.0       0.0  -15000.0       0.0       0.0       0.0
*ELEMENT_SOLID
$#   eid     pid      n1      n2      n3      n4      n5      n6      n7      n8
       1       1       2      22      91      68    3447    3448    3449    3450
       2       1       3       1      24      92    3451    3452    3453    3454
       3       1      67      47      90      93    3455    3456    3457    3458
       4       1      46      23      48      94    3459    3460    3461    3462
       5       1      69      68      91      95    3463    3450    3449    3464
       6       1      45      46      94      96    3465    3459    3462    3466
       7       1      70      69      95      97    3467    3463    3464    3468
       8       1      44      45      96      98    3469    3465    3466    3470
       9       1      71      70      97      99    3471    3467    3468    3472
      10       1      43      44      98     100    3473    3469    3470    3474
      11       1      72      71      99     101    3475    3471    3472    3476
      12       1      42      43     100     102    3477    3473    3474    3478
      13       1      73      72     101     103    3479    3475    3476    3480
      14       1      41      42     102     104    3481    3477    3478    3482
      15       1      74      73     103     105    3483    3479    3480    3484
      16       1      40      41     104     106    3485    3481    3482    3486
      17       1      75      74     105     107    3487    3483    3484    3488
      18       1      39      40     106     108    3489    3485    3486    3490
      19       1      76      75     107     109    3491    3487    3488    3492
      20       1      38      39     108     110    3493    3489    3490    3494
$ ... 3836 like lines cut
*ELEMENT_MASS_NODE_SET
$#   eid    nsid            mass     pid   
       1       2           0.004       0
*NODE
$#   nid               x               y               z      tc      rc  
       1          -105.0          -120.0             4.0       0       0
       2           105.0          -120.0             4.0       0       0
       3           -95.0          -120.0             4.0       0       0
       4           -85.0          -120.0             4.0       0       0
       5           -75.0          -120.0             4.0       0       0
       6           -65.0          -120.0             4.0       0       0
       7           -55.0          -120.0             4.0       0       0
       8           -45.0          -120.0             4.0       0       0
       9           -35.0          -120.0             4.0       0       0
      10           -25.0          -120.0             4.0       0       0
      11           -15.0          -120.0             4.0       0       0
      12            -5.0          -120.0             4.0       0       0
      13             5.0          -120.0             4.0       0       0
      14            15.0          -120.0             4.0       0       0
      15            25.0          -120.0             4.0       0       0
      16            35.0          -120.0             4.0       0       0
      17            45.0          -120.0             4.0       0       0
      18            55.0          -120.0             4.0       0       0
      19            65.0          -120.0             4.0       0       0
      20            75.0          -120.0             4.0       0       0
$ ... 6665 like lines cut
*END
